[General]
repeat = 1
seed-set =  ${repetition}
sim-time-limit = 250s
**.initial_notification_timing_buffer = 10s # when to start the BSA timing notification.
**.app.request_generation_interval = 2s
**.logger.enabled_log = false
**.logger.log_filename = "networks/${resultdir}/${configname}-${runnumber}.jsonl"
**.tomography_output_filename = "${resultdir}/${configname}.output"
**.statistic-recording = false
**.scalar-recording = false
**.vector-recording = false
**.speed_of_light_in_fiber = 208189.206944km

**.channel_loss_rate = 0.04500741397 # per km. 1 - 10^(-0.2/10)
**.channel_x_error_rate = 0
**.channel_z_error_rate = 0
**.channel_y_error_rate = 0

**.collection_efficiency = 1
**.darkcount_probability = 0
**.detection_efficiency = 1
**.indistinguishable_time_window = 1.5ns
**.photon_detection_per_second = 1000000 # 1MHz

**.x_gate_error_rate = 0
**.x_gate_x_error_ratio = 0
**.x_gate_y_error_ratio = 0
**.x_gate_z_error_ratio = 0

**.z_gate_error_rate = 0
**.z_gate_x_error_ratio = 0
**.z_gate_y_error_ratio = 0
**.z_gate_z_error_ratio = 0

# CNOT error parameters
**.cnot_gate_error_rate = 0
**.cnot_gate_ix_error_ratio = 0
**.cnot_gate_iy_error_ratio = 0
**.cnot_gate_iz_error_ratio = 0
**.cnot_gate_xi_error_ratio = 0
**.cnot_gate_xx_error_ratio = 0
**.cnot_gate_xy_error_ratio = 0
**.cnot_gate_xz_error_ratio = 0
**.cnot_gate_yi_error_ratio = 0
**.cnot_gate_yx_error_ratio = 0
**.cnot_gate_yy_error_ratio = 0
**.cnot_gate_yz_error_ratio = 0
**.cnot_gate_zi_error_ratio = 0
**.cnot_gate_zx_error_ratio = 0
**.cnot_gate_zy_error_ratio = 0
**.cnot_gate_zz_error_ratio = 0

# memory error parameters
**.memory_x_error_rate = 0
**.memory_y_error_rate = 0
**.memory_z_error_rate = 0
**.memory_energy_excitation_rate = 0
**.memory_energy_relaxation_rate = 0
**.memory_completely_mixed_rate = 0

# measurement error parameters
**.x_measurement_error_rate = 0
**.z_measurement_error_rate = 0
**.y_measurement_error_rate = 0

# simulation parameters
**.app.number_of_bellpair = 50000
**.buffers = 1
**.qrsa.hm.num_measure = 50000



[Config swapping_validation_cnot_0_meas_1_with_inf_coherence_time_for_10000_pairs]
network = networks.cross_validation_swapping
**.cnot_gate_error_rate = 0.0
*.Repeater.**.x_measurement_error_rate = 0.1
*.Repeater.**.y_measurement_error_rate = 0.1
*.Repeater.**.z_measurement_error_rate = 0.1
**.memory_x_error_rate = 0
**.memory_y_error_rate = 0
**.memory_z_error_rate = 0
**.channel_loss_rate = 0.04500741397
repeat = 30
seed-set = ${repetition}
**.photon_detection_per_second = 1000000000 # 1GHz
**.qrsa.hm.link_tomography = false
**.qrsa.hm.initial_purification = 0
**.qrsa.hm.purification_type = ""
*.alice.is_initiator = true
**.buffers = 1
**.app.number_of_bellpair = 10000
**.qrsa.hm.num_measure = 10


[Config swapping_validation_cnot_025_meas_1_with_inf_coherence_time_for_10000_pairs]
network = networks.cross_validation_swapping
**.cnot_gate_error_rate = 0.025
*.Repeater.**.x_measurement_error_rate = 0.1
*.Repeater.**.y_measurement_error_rate = 0.1
*.Repeater.**.z_measurement_error_rate = 0.1
**.memory_x_error_rate = 0
**.memory_y_error_rate = 0
**.memory_z_error_rate = 0
**.channel_loss_rate = 0.04500741397
repeat = 30
seed-set = ${repetition}
**.photon_detection_per_second = 1000000000 # 1GHz
**.qrsa.hm.link_tomography = false
**.qrsa.hm.initial_purification = 0
**.qrsa.hm.purification_type = ""
*.alice.is_initiator = true
**.buffers = 1
**.app.number_of_bellpair = 10000
**.qrsa.hm.num_measure = 10


[Config swapping_validation_cnot_05_meas_1_with_inf_coherence_time_for_10000_pairs]
network = networks.cross_validation_swapping
**.cnot_gate_error_rate = 0.05
*.Repeater.**.x_measurement_error_rate = 0.1
*.Repeater.**.y_measurement_error_rate = 0.1
*.Repeater.**.z_measurement_error_rate = 0.1
**.memory_x_error_rate = 0
**.memory_y_error_rate = 0
**.memory_z_error_rate = 0
**.channel_loss_rate = 0.04500741397
repeat = 30
seed-set = ${repetition}
**.photon_detection_per_second = 1000000000 # 1GHz
**.qrsa.hm.link_tomography = false
**.qrsa.hm.initial_purification = 0
**.qrsa.hm.purification_type = ""
*.alice.is_initiator = true
**.buffers = 1
**.app.number_of_bellpair = 10000
**.qrsa.hm.num_measure = 10


[Config swapping_validation_cnot_075_meas_1_with_inf_coherence_time_for_10000_pairs]
network = networks.cross_validation_swapping
**.cnot_gate_error_rate = 0.075
*.Repeater.**.x_measurement_error_rate = 0.1
*.Repeater.**.y_measurement_error_rate = 0.1
*.Repeater.**.z_measurement_error_rate = 0.1
**.memory_x_error_rate = 0
**.memory_y_error_rate = 0
**.memory_z_error_rate = 0
**.channel_loss_rate = 0.04500741397
repeat = 30
seed-set = ${repetition}
**.photon_detection_per_second = 1000000000 # 1GHz
**.qrsa.hm.link_tomography = false
**.qrsa.hm.initial_purification = 0
**.qrsa.hm.purification_type = ""
*.alice.is_initiator = true
**.buffers = 1
**.app.number_of_bellpair = 10000
**.qrsa.hm.num_measure = 10


[Config swapping_validation_cnot_1_meas_1_with_inf_coherence_time_for_10000_pairs]
network = networks.cross_validation_swapping
**.cnot_gate_error_rate = 0.1
*.Repeater.**.x_measurement_error_rate = 0.1
*.Repeater.**.y_measurement_error_rate = 0.1
*.Repeater.**.z_measurement_error_rate = 0.1
**.memory_x_error_rate = 0
**.memory_y_error_rate = 0
**.memory_z_error_rate = 0
**.channel_loss_rate = 0.04500741397
repeat = 30
seed-set = ${repetition}
**.photon_detection_per_second = 1000000000 # 1GHz
**.qrsa.hm.link_tomography = false
**.qrsa.hm.initial_purification = 0
**.qrsa.hm.purification_type = ""
*.alice.is_initiator = true
**.buffers = 1
**.app.number_of_bellpair = 10000
**.qrsa.hm.num_measure = 10


[Config swapping_validation_cnot_125_meas_1_with_inf_coherence_time_for_10000_pairs]
network = networks.cross_validation_swapping
**.cnot_gate_error_rate = 0.125
*.Repeater.**.x_measurement_error_rate = 0.1
*.Repeater.**.y_measurement_error_rate = 0.1
*.Repeater.**.z_measurement_error_rate = 0.1
**.memory_x_error_rate = 0
**.memory_y_error_rate = 0
**.memory_z_error_rate = 0
**.channel_loss_rate = 0.04500741397
repeat = 30
seed-set = ${repetition}
**.photon_detection_per_second = 1000000000 # 1GHz
**.qrsa.hm.link_tomography = false
**.qrsa.hm.initial_purification = 0
**.qrsa.hm.purification_type = ""
*.alice.is_initiator = true
**.buffers = 1
**.app.number_of_bellpair = 10000
**.qrsa.hm.num_measure = 10


[Config swapping_validation_cnot_15_meas_1_with_inf_coherence_time_for_10000_pairs]
network = networks.cross_validation_swapping
**.cnot_gate_error_rate = 0.15
*.Repeater.**.x_measurement_error_rate = 0.1
*.Repeater.**.y_measurement_error_rate = 0.1
*.Repeater.**.z_measurement_error_rate = 0.1
**.memory_x_error_rate = 0
**.memory_y_error_rate = 0
**.memory_z_error_rate = 0
**.channel_loss_rate = 0.04500741397
repeat = 30
seed-set = ${repetition}
**.photon_detection_per_second = 1000000000 # 1GHz
**.qrsa.hm.link_tomography = false
**.qrsa.hm.initial_purification = 0
**.qrsa.hm.purification_type = ""
*.alice.is_initiator = true
**.buffers = 1
**.app.number_of_bellpair = 10000
**.qrsa.hm.num_measure = 10


[Config swapping_validation_cnot_175_meas_1_with_inf_coherence_time_for_10000_pairs]
network = networks.cross_validation_swapping
**.cnot_gate_error_rate = 0.175
*.Repeater.**.x_measurement_error_rate = 0.1
*.Repeater.**.y_measurement_error_rate = 0.1
*.Repeater.**.z_measurement_error_rate = 0.1
**.memory_x_error_rate = 0
**.memory_y_error_rate = 0
**.memory_z_error_rate = 0
**.channel_loss_rate = 0.04500741397
repeat = 30
seed-set = ${repetition}
**.photon_detection_per_second = 1000000000 # 1GHz
**.qrsa.hm.link_tomography = false
**.qrsa.hm.initial_purification = 0
**.qrsa.hm.purification_type = ""
*.alice.is_initiator = true
**.buffers = 1
**.app.number_of_bellpair = 10000
**.qrsa.hm.num_measure = 10


[Config swapping_validation_cnot_2_meas_1_with_inf_coherence_time_for_10000_pairs]
network = networks.cross_validation_swapping
**.cnot_gate_error_rate = 0.2
*.Repeater.**.x_measurement_error_rate = 0.1
*.Repeater.**.y_measurement_error_rate = 0.1
*.Repeater.**.z_measurement_error_rate = 0.1
**.memory_x_error_rate = 0
**.memory_y_error_rate = 0
**.memory_z_error_rate = 0
**.channel_loss_rate = 0.04500741397
repeat = 30
seed-set = ${repetition}
**.photon_detection_per_second = 1000000000 # 1GHz
**.qrsa.hm.link_tomography = false
**.qrsa.hm.initial_purification = 0
**.qrsa.hm.purification_type = ""
*.alice.is_initiator = true
**.buffers = 1
**.app.number_of_bellpair = 10000
**.qrsa.hm.num_measure = 10


[Config swapping_validation_cnot_225_meas_1_with_inf_coherence_time_for_10000_pairs]
network = networks.cross_validation_swapping
**.cnot_gate_error_rate = 0.225
*.Repeater.**.x_measurement_error_rate = 0.1
*.Repeater.**.y_measurement_error_rate = 0.1
*.Repeater.**.z_measurement_error_rate = 0.1
**.memory_x_error_rate = 0
**.memory_y_error_rate = 0
**.memory_z_error_rate = 0
**.channel_loss_rate = 0.04500741397
repeat = 30
seed-set = ${repetition}
**.photon_detection_per_second = 1000000000 # 1GHz
**.qrsa.hm.link_tomography = false
**.qrsa.hm.initial_purification = 0
**.qrsa.hm.purification_type = ""
*.alice.is_initiator = true
**.buffers = 1
**.app.number_of_bellpair = 10000
**.qrsa.hm.num_measure = 10


[Config swapping_validation_cnot_25_meas_1_with_inf_coherence_time_for_10000_pairs]
network = networks.cross_validation_swapping
**.cnot_gate_error_rate = 0.25
*.Repeater.**.x_measurement_error_rate = 0.1
*.Repeater.**.y_measurement_error_rate = 0.1
*.Repeater.**.z_measurement_error_rate = 0.1
**.memory_x_error_rate = 0
**.memory_y_error_rate = 0
**.memory_z_error_rate = 0
**.channel_loss_rate = 0.04500741397
repeat = 30
seed-set = ${repetition}
**.photon_detection_per_second = 1000000000 # 1GHz
**.qrsa.hm.link_tomography = false
**.qrsa.hm.initial_purification = 0
**.qrsa.hm.purification_type = ""
*.alice.is_initiator = true
**.buffers = 1
**.app.number_of_bellpair = 10000
**.qrsa.hm.num_measure = 10


[Config swapping_validation_cnot_275_meas_1_with_inf_coherence_time_for_10000_pairs]
network = networks.cross_validation_swapping
**.cnot_gate_error_rate = 0.275
*.Repeater.**.x_measurement_error_rate = 0.1
*.Repeater.**.y_measurement_error_rate = 0.1
*.Repeater.**.z_measurement_error_rate = 0.1
**.memory_x_error_rate = 0
**.memory_y_error_rate = 0
**.memory_z_error_rate = 0
**.channel_loss_rate = 0.04500741397
repeat = 30
seed-set = ${repetition}
**.photon_detection_per_second = 1000000000 # 1GHz
**.qrsa.hm.link_tomography = false
**.qrsa.hm.initial_purification = 0
**.qrsa.hm.purification_type = ""
*.alice.is_initiator = true
**.buffers = 1
**.app.number_of_bellpair = 10000
**.qrsa.hm.num_measure = 10


[Config swapping_validation_cnot_3_meas_1_with_inf_coherence_time_for_10000_pairs]
network = networks.cross_validation_swapping
**.cnot_gate_error_rate = 0.3
*.Repeater.**.x_measurement_error_rate = 0.1
*.Repeater.**.y_measurement_error_rate = 0.1
*.Repeater.**.z_measurement_error_rate = 0.1
**.memory_x_error_rate = 0
**.memory_y_error_rate = 0
**.memory_z_error_rate = 0
**.channel_loss_rate = 0.04500741397
repeat = 30
seed-set = ${repetition}
**.photon_detection_per_second = 1000000000 # 1GHz
**.qrsa.hm.link_tomography = false
**.qrsa.hm.initial_purification = 0
**.qrsa.hm.purification_type = ""
*.alice.is_initiator = true
**.buffers = 1
**.app.number_of_bellpair = 10000
**.qrsa.hm.num_measure = 10


[Config swapping_validation_cnot_325_meas_1_with_inf_coherence_time_for_10000_pairs]
network = networks.cross_validation_swapping
**.cnot_gate_error_rate = 0.325
*.Repeater.**.x_measurement_error_rate = 0.1
*.Repeater.**.y_measurement_error_rate = 0.1
*.Repeater.**.z_measurement_error_rate = 0.1
**.memory_x_error_rate = 0
**.memory_y_error_rate = 0
**.memory_z_error_rate = 0
**.channel_loss_rate = 0.04500741397
repeat = 30
seed-set = ${repetition}
**.photon_detection_per_second = 1000000000 # 1GHz
**.qrsa.hm.link_tomography = false
**.qrsa.hm.initial_purification = 0
**.qrsa.hm.purification_type = ""
*.alice.is_initiator = true
**.buffers = 1
**.app.number_of_bellpair = 10000
**.qrsa.hm.num_measure = 10


[Config swapping_validation_cnot_35_meas_1_with_inf_coherence_time_for_10000_pairs]
network = networks.cross_validation_swapping
**.cnot_gate_error_rate = 0.35
*.Repeater.**.x_measurement_error_rate = 0.1
*.Repeater.**.y_measurement_error_rate = 0.1
*.Repeater.**.z_measurement_error_rate = 0.1
**.memory_x_error_rate = 0
**.memory_y_error_rate = 0
**.memory_z_error_rate = 0
**.channel_loss_rate = 0.04500741397
repeat = 30
seed-set = ${repetition}
**.photon_detection_per_second = 1000000000 # 1GHz
**.qrsa.hm.link_tomography = false
**.qrsa.hm.initial_purification = 0
**.qrsa.hm.purification_type = ""
*.alice.is_initiator = true
**.buffers = 1
**.app.number_of_bellpair = 10000
**.qrsa.hm.num_measure = 10


[Config swapping_validation_cnot_375_meas_1_with_inf_coherence_time_for_10000_pairs]
network = networks.cross_validation_swapping
**.cnot_gate_error_rate = 0.375
*.Repeater.**.x_measurement_error_rate = 0.1
*.Repeater.**.y_measurement_error_rate = 0.1
*.Repeater.**.z_measurement_error_rate = 0.1
**.memory_x_error_rate = 0
**.memory_y_error_rate = 0
**.memory_z_error_rate = 0
**.channel_loss_rate = 0.04500741397
repeat = 30
seed-set = ${repetition}
**.photon_detection_per_second = 1000000000 # 1GHz
**.qrsa.hm.link_tomography = false
**.qrsa.hm.initial_purification = 0
**.qrsa.hm.purification_type = ""
*.alice.is_initiator = true
**.buffers = 1
**.app.number_of_bellpair = 10000
**.qrsa.hm.num_measure = 10


[Config swapping_validation_cnot_4_meas_1_with_inf_coherence_time_for_10000_pairs]
network = networks.cross_validation_swapping
**.cnot_gate_error_rate = 0.4
*.Repeater.**.x_measurement_error_rate = 0.1
*.Repeater.**.y_measurement_error_rate = 0.1
*.Repeater.**.z_measurement_error_rate = 0.1
**.memory_x_error_rate = 0
**.memory_y_error_rate = 0
**.memory_z_error_rate = 0
**.channel_loss_rate = 0.04500741397
repeat = 30
seed-set = ${repetition}
**.photon_detection_per_second = 1000000000 # 1GHz
**.qrsa.hm.link_tomography = false
**.qrsa.hm.initial_purification = 0
**.qrsa.hm.purification_type = ""
*.alice.is_initiator = true
**.buffers = 1
**.app.number_of_bellpair = 10000
**.qrsa.hm.num_measure = 10


[Config swapping_validation_cnot_425_meas_1_with_inf_coherence_time_for_10000_pairs]
network = networks.cross_validation_swapping
**.cnot_gate_error_rate = 0.425
*.Repeater.**.x_measurement_error_rate = 0.1
*.Repeater.**.y_measurement_error_rate = 0.1
*.Repeater.**.z_measurement_error_rate = 0.1
**.memory_x_error_rate = 0
**.memory_y_error_rate = 0
**.memory_z_error_rate = 0
**.channel_loss_rate = 0.04500741397
repeat = 30
seed-set = ${repetition}
**.photon_detection_per_second = 1000000000 # 1GHz
**.qrsa.hm.link_tomography = false
**.qrsa.hm.initial_purification = 0
**.qrsa.hm.purification_type = ""
*.alice.is_initiator = true
**.buffers = 1
**.app.number_of_bellpair = 10000
**.qrsa.hm.num_measure = 10


[Config swapping_validation_cnot_45_meas_1_with_inf_coherence_time_for_10000_pairs]
network = networks.cross_validation_swapping
**.cnot_gate_error_rate = 0.45
*.Repeater.**.x_measurement_error_rate = 0.1
*.Repeater.**.y_measurement_error_rate = 0.1
*.Repeater.**.z_measurement_error_rate = 0.1
**.memory_x_error_rate = 0
**.memory_y_error_rate = 0
**.memory_z_error_rate = 0
**.channel_loss_rate = 0.04500741397
repeat = 30
seed-set = ${repetition}
**.photon_detection_per_second = 1000000000 # 1GHz
**.qrsa.hm.link_tomography = false
**.qrsa.hm.initial_purification = 0
**.qrsa.hm.purification_type = ""
*.alice.is_initiator = true
**.buffers = 1
**.app.number_of_bellpair = 10000
**.qrsa.hm.num_measure = 10


[Config swapping_validation_cnot_475_meas_1_with_inf_coherence_time_for_10000_pairs]
network = networks.cross_validation_swapping
**.cnot_gate_error_rate = 0.475
*.Repeater.**.x_measurement_error_rate = 0.1
*.Repeater.**.y_measurement_error_rate = 0.1
*.Repeater.**.z_measurement_error_rate = 0.1
**.memory_x_error_rate = 0
**.memory_y_error_rate = 0
**.memory_z_error_rate = 0
**.channel_loss_rate = 0.04500741397
repeat = 30
seed-set = ${repetition}
**.photon_detection_per_second = 1000000000 # 1GHz
**.qrsa.hm.link_tomography = false
**.qrsa.hm.initial_purification = 0
**.qrsa.hm.purification_type = ""
*.alice.is_initiator = true
**.buffers = 1
**.app.number_of_bellpair = 10000
**.qrsa.hm.num_measure = 10


[Config swapping_validation_cnot_5_meas_1_with_inf_coherence_time_for_10000_pairs]
network = networks.cross_validation_swapping
**.cnot_gate_error_rate = 0.5
*.Repeater.**.x_measurement_error_rate = 0.1
*.Repeater.**.y_measurement_error_rate = 0.1
*.Repeater.**.z_measurement_error_rate = 0.1
**.memory_x_error_rate = 0
**.memory_y_error_rate = 0
**.memory_z_error_rate = 0
**.channel_loss_rate = 0.04500741397
repeat = 30
seed-set = ${repetition}
**.photon_detection_per_second = 1000000000 # 1GHz
**.qrsa.hm.link_tomography = false
**.qrsa.hm.initial_purification = 0
**.qrsa.hm.purification_type = ""
*.alice.is_initiator = true
**.buffers = 1
**.app.number_of_bellpair = 10000
**.qrsa.hm.num_measure = 10


[Config swapping_validation_cnot_525_meas_1_with_inf_coherence_time_for_10000_pairs]
network = networks.cross_validation_swapping
**.cnot_gate_error_rate = 0.525
*.Repeater.**.x_measurement_error_rate = 0.1
*.Repeater.**.y_measurement_error_rate = 0.1
*.Repeater.**.z_measurement_error_rate = 0.1
**.memory_x_error_rate = 0
**.memory_y_error_rate = 0
**.memory_z_error_rate = 0
**.channel_loss_rate = 0.04500741397
repeat = 30
seed-set = ${repetition}
**.photon_detection_per_second = 1000000000 # 1GHz
**.qrsa.hm.link_tomography = false
**.qrsa.hm.initial_purification = 0
**.qrsa.hm.purification_type = ""
*.alice.is_initiator = true
**.buffers = 1
**.app.number_of_bellpair = 10000
**.qrsa.hm.num_measure = 10


[Config swapping_validation_cnot_55_meas_1_with_inf_coherence_time_for_10000_pairs]
network = networks.cross_validation_swapping
**.cnot_gate_error_rate = 0.55
*.Repeater.**.x_measurement_error_rate = 0.1
*.Repeater.**.y_measurement_error_rate = 0.1
*.Repeater.**.z_measurement_error_rate = 0.1
**.memory_x_error_rate = 0
**.memory_y_error_rate = 0
**.memory_z_error_rate = 0
**.channel_loss_rate = 0.04500741397
repeat = 30
seed-set = ${repetition}
**.photon_detection_per_second = 1000000000 # 1GHz
**.qrsa.hm.link_tomography = false
**.qrsa.hm.initial_purification = 0
**.qrsa.hm.purification_type = ""
*.alice.is_initiator = true
**.buffers = 1
**.app.number_of_bellpair = 10000
**.qrsa.hm.num_measure = 10


[Config swapping_validation_cnot_575_meas_1_with_inf_coherence_time_for_10000_pairs]
network = networks.cross_validation_swapping
**.cnot_gate_error_rate = 0.575
*.Repeater.**.x_measurement_error_rate = 0.1
*.Repeater.**.y_measurement_error_rate = 0.1
*.Repeater.**.z_measurement_error_rate = 0.1
**.memory_x_error_rate = 0
**.memory_y_error_rate = 0
**.memory_z_error_rate = 0
**.channel_loss_rate = 0.04500741397
repeat = 30
seed-set = ${repetition}
**.photon_detection_per_second = 1000000000 # 1GHz
**.qrsa.hm.link_tomography = false
**.qrsa.hm.initial_purification = 0
**.qrsa.hm.purification_type = ""
*.alice.is_initiator = true
**.buffers = 1
**.app.number_of_bellpair = 10000
**.qrsa.hm.num_measure = 10


[Config swapping_validation_cnot_6_meas_1_with_inf_coherence_time_for_10000_pairs]
network = networks.cross_validation_swapping
**.cnot_gate_error_rate = 0.6
*.Repeater.**.x_measurement_error_rate = 0.1
*.Repeater.**.y_measurement_error_rate = 0.1
*.Repeater.**.z_measurement_error_rate = 0.1
**.memory_x_error_rate = 0
**.memory_y_error_rate = 0
**.memory_z_error_rate = 0
**.channel_loss_rate = 0.04500741397
repeat = 30
seed-set = ${repetition}
**.photon_detection_per_second = 1000000000 # 1GHz
**.qrsa.hm.link_tomography = false
**.qrsa.hm.initial_purification = 0
**.qrsa.hm.purification_type = ""
*.alice.is_initiator = true
**.buffers = 1
**.app.number_of_bellpair = 10000
**.qrsa.hm.num_measure = 10


[Config swapping_validation_cnot_625_meas_1_with_inf_coherence_time_for_10000_pairs]
network = networks.cross_validation_swapping
**.cnot_gate_error_rate = 0.625
*.Repeater.**.x_measurement_error_rate = 0.1
*.Repeater.**.y_measurement_error_rate = 0.1
*.Repeater.**.z_measurement_error_rate = 0.1
**.memory_x_error_rate = 0
**.memory_y_error_rate = 0
**.memory_z_error_rate = 0
**.channel_loss_rate = 0.04500741397
repeat = 30
seed-set = ${repetition}
**.photon_detection_per_second = 1000000000 # 1GHz
**.qrsa.hm.link_tomography = false
**.qrsa.hm.initial_purification = 0
**.qrsa.hm.purification_type = ""
*.alice.is_initiator = true
**.buffers = 1
**.app.number_of_bellpair = 10000
**.qrsa.hm.num_measure = 10


[Config swapping_validation_cnot_65_meas_1_with_inf_coherence_time_for_10000_pairs]
network = networks.cross_validation_swapping
**.cnot_gate_error_rate = 0.65
*.Repeater.**.x_measurement_error_rate = 0.1
*.Repeater.**.y_measurement_error_rate = 0.1
*.Repeater.**.z_measurement_error_rate = 0.1
**.memory_x_error_rate = 0
**.memory_y_error_rate = 0
**.memory_z_error_rate = 0
**.channel_loss_rate = 0.04500741397
repeat = 30
seed-set = ${repetition}
**.photon_detection_per_second = 1000000000 # 1GHz
**.qrsa.hm.link_tomography = false
**.qrsa.hm.initial_purification = 0
**.qrsa.hm.purification_type = ""
*.alice.is_initiator = true
**.buffers = 1
**.app.number_of_bellpair = 10000
**.qrsa.hm.num_measure = 10


[Config swapping_validation_cnot_675_meas_1_with_inf_coherence_time_for_10000_pairs]
network = networks.cross_validation_swapping
**.cnot_gate_error_rate = 0.675
*.Repeater.**.x_measurement_error_rate = 0.1
*.Repeater.**.y_measurement_error_rate = 0.1
*.Repeater.**.z_measurement_error_rate = 0.1
**.memory_x_error_rate = 0
**.memory_y_error_rate = 0
**.memory_z_error_rate = 0
**.channel_loss_rate = 0.04500741397
repeat = 30
seed-set = ${repetition}
**.photon_detection_per_second = 1000000000 # 1GHz
**.qrsa.hm.link_tomography = false
**.qrsa.hm.initial_purification = 0
**.qrsa.hm.purification_type = ""
*.alice.is_initiator = true
**.buffers = 1
**.app.number_of_bellpair = 10000
**.qrsa.hm.num_measure = 10


[Config swapping_validation_cnot_7_meas_1_with_inf_coherence_time_for_10000_pairs]
network = networks.cross_validation_swapping
**.cnot_gate_error_rate = 0.7
*.Repeater.**.x_measurement_error_rate = 0.1
*.Repeater.**.y_measurement_error_rate = 0.1
*.Repeater.**.z_measurement_error_rate = 0.1
**.memory_x_error_rate = 0
**.memory_y_error_rate = 0
**.memory_z_error_rate = 0
**.channel_loss_rate = 0.04500741397
repeat = 30
seed-set = ${repetition}
**.photon_detection_per_second = 1000000000 # 1GHz
**.qrsa.hm.link_tomography = false
**.qrsa.hm.initial_purification = 0
**.qrsa.hm.purification_type = ""
*.alice.is_initiator = true
**.buffers = 1
**.app.number_of_bellpair = 10000
**.qrsa.hm.num_measure = 10


[Config swapping_validation_cnot_725_meas_1_with_inf_coherence_time_for_10000_pairs]
network = networks.cross_validation_swapping
**.cnot_gate_error_rate = 0.725
*.Repeater.**.x_measurement_error_rate = 0.1
*.Repeater.**.y_measurement_error_rate = 0.1
*.Repeater.**.z_measurement_error_rate = 0.1
**.memory_x_error_rate = 0
**.memory_y_error_rate = 0
**.memory_z_error_rate = 0
**.channel_loss_rate = 0.04500741397
repeat = 30
seed-set = ${repetition}
**.photon_detection_per_second = 1000000000 # 1GHz
**.qrsa.hm.link_tomography = false
**.qrsa.hm.initial_purification = 0
**.qrsa.hm.purification_type = ""
*.alice.is_initiator = true
**.buffers = 1
**.app.number_of_bellpair = 10000
**.qrsa.hm.num_measure = 10


[Config swapping_validation_cnot_75_meas_1_with_inf_coherence_time_for_10000_pairs]
network = networks.cross_validation_swapping
**.cnot_gate_error_rate = 0.75
*.Repeater.**.x_measurement_error_rate = 0.1
*.Repeater.**.y_measurement_error_rate = 0.1
*.Repeater.**.z_measurement_error_rate = 0.1
**.memory_x_error_rate = 0
**.memory_y_error_rate = 0
**.memory_z_error_rate = 0
**.channel_loss_rate = 0.04500741397
repeat = 30
seed-set = ${repetition}
**.photon_detection_per_second = 1000000000 # 1GHz
**.qrsa.hm.link_tomography = false
**.qrsa.hm.initial_purification = 0
**.qrsa.hm.purification_type = ""
*.alice.is_initiator = true
**.buffers = 1
**.app.number_of_bellpair = 10000
**.qrsa.hm.num_measure = 10


[Config swapping_validation_cnot_775_meas_1_with_inf_coherence_time_for_10000_pairs]
network = networks.cross_validation_swapping
**.cnot_gate_error_rate = 0.775
*.Repeater.**.x_measurement_error_rate = 0.1
*.Repeater.**.y_measurement_error_rate = 0.1
*.Repeater.**.z_measurement_error_rate = 0.1
**.memory_x_error_rate = 0
**.memory_y_error_rate = 0
**.memory_z_error_rate = 0
**.channel_loss_rate = 0.04500741397
repeat = 30
seed-set = ${repetition}
**.photon_detection_per_second = 1000000000 # 1GHz
**.qrsa.hm.link_tomography = false
**.qrsa.hm.initial_purification = 0
**.qrsa.hm.purification_type = ""
*.alice.is_initiator = true
**.buffers = 1
**.app.number_of_bellpair = 10000
**.qrsa.hm.num_measure = 10


[Config swapping_validation_cnot_8_meas_1_with_inf_coherence_time_for_10000_pairs]
network = networks.cross_validation_swapping
**.cnot_gate_error_rate = 0.8
*.Repeater.**.x_measurement_error_rate = 0.1
*.Repeater.**.y_measurement_error_rate = 0.1
*.Repeater.**.z_measurement_error_rate = 0.1
**.memory_x_error_rate = 0
**.memory_y_error_rate = 0
**.memory_z_error_rate = 0
**.channel_loss_rate = 0.04500741397
repeat = 30
seed-set = ${repetition}
**.photon_detection_per_second = 1000000000 # 1GHz
**.qrsa.hm.link_tomography = false
**.qrsa.hm.initial_purification = 0
**.qrsa.hm.purification_type = ""
*.alice.is_initiator = true
**.buffers = 1
**.app.number_of_bellpair = 10000
**.qrsa.hm.num_measure = 10


[Config swapping_validation_cnot_825_meas_1_with_inf_coherence_time_for_10000_pairs]
network = networks.cross_validation_swapping
**.cnot_gate_error_rate = 0.825
*.Repeater.**.x_measurement_error_rate = 0.1
*.Repeater.**.y_measurement_error_rate = 0.1
*.Repeater.**.z_measurement_error_rate = 0.1
**.memory_x_error_rate = 0
**.memory_y_error_rate = 0
**.memory_z_error_rate = 0
**.channel_loss_rate = 0.04500741397
repeat = 30
seed-set = ${repetition}
**.photon_detection_per_second = 1000000000 # 1GHz
**.qrsa.hm.link_tomography = false
**.qrsa.hm.initial_purification = 0
**.qrsa.hm.purification_type = ""
*.alice.is_initiator = true
**.buffers = 1
**.app.number_of_bellpair = 10000
**.qrsa.hm.num_measure = 10


[Config swapping_validation_cnot_85_meas_1_with_inf_coherence_time_for_10000_pairs]
network = networks.cross_validation_swapping
**.cnot_gate_error_rate = 0.85
*.Repeater.**.x_measurement_error_rate = 0.1
*.Repeater.**.y_measurement_error_rate = 0.1
*.Repeater.**.z_measurement_error_rate = 0.1
**.memory_x_error_rate = 0
**.memory_y_error_rate = 0
**.memory_z_error_rate = 0
**.channel_loss_rate = 0.04500741397
repeat = 30
seed-set = ${repetition}
**.photon_detection_per_second = 1000000000 # 1GHz
**.qrsa.hm.link_tomography = false
**.qrsa.hm.initial_purification = 0
**.qrsa.hm.purification_type = ""
*.alice.is_initiator = true
**.buffers = 1
**.app.number_of_bellpair = 10000
**.qrsa.hm.num_measure = 10


[Config swapping_validation_cnot_875_meas_1_with_inf_coherence_time_for_10000_pairs]
network = networks.cross_validation_swapping
**.cnot_gate_error_rate = 0.875
*.Repeater.**.x_measurement_error_rate = 0.1
*.Repeater.**.y_measurement_error_rate = 0.1
*.Repeater.**.z_measurement_error_rate = 0.1
**.memory_x_error_rate = 0
**.memory_y_error_rate = 0
**.memory_z_error_rate = 0
**.channel_loss_rate = 0.04500741397
repeat = 30
seed-set = ${repetition}
**.photon_detection_per_second = 1000000000 # 1GHz
**.qrsa.hm.link_tomography = false
**.qrsa.hm.initial_purification = 0
**.qrsa.hm.purification_type = ""
*.alice.is_initiator = true
**.buffers = 1
**.app.number_of_bellpair = 10000
**.qrsa.hm.num_measure = 10


[Config swapping_validation_cnot_9_meas_1_with_inf_coherence_time_for_10000_pairs]
network = networks.cross_validation_swapping
**.cnot_gate_error_rate = 0.9
*.Repeater.**.x_measurement_error_rate = 0.1
*.Repeater.**.y_measurement_error_rate = 0.1
*.Repeater.**.z_measurement_error_rate = 0.1
**.memory_x_error_rate = 0
**.memory_y_error_rate = 0
**.memory_z_error_rate = 0
**.channel_loss_rate = 0.04500741397
repeat = 30
seed-set = ${repetition}
**.photon_detection_per_second = 1000000000 # 1GHz
**.qrsa.hm.link_tomography = false
**.qrsa.hm.initial_purification = 0
**.qrsa.hm.purification_type = ""
*.alice.is_initiator = true
**.buffers = 1
**.app.number_of_bellpair = 10000
**.qrsa.hm.num_measure = 10


[Config swapping_validation_cnot_925_meas_1_with_inf_coherence_time_for_10000_pairs]
network = networks.cross_validation_swapping
**.cnot_gate_error_rate = 0.925
*.Repeater.**.x_measurement_error_rate = 0.1
*.Repeater.**.y_measurement_error_rate = 0.1
*.Repeater.**.z_measurement_error_rate = 0.1
**.memory_x_error_rate = 0
**.memory_y_error_rate = 0
**.memory_z_error_rate = 0
**.channel_loss_rate = 0.04500741397
repeat = 30
seed-set = ${repetition}
**.photon_detection_per_second = 1000000000 # 1GHz
**.qrsa.hm.link_tomography = false
**.qrsa.hm.initial_purification = 0
**.qrsa.hm.purification_type = ""
*.alice.is_initiator = true
**.buffers = 1
**.app.number_of_bellpair = 10000
**.qrsa.hm.num_measure = 10


[Config swapping_validation_cnot_95_meas_1_with_inf_coherence_time_for_10000_pairs]
network = networks.cross_validation_swapping
**.cnot_gate_error_rate = 0.95
*.Repeater.**.x_measurement_error_rate = 0.1
*.Repeater.**.y_measurement_error_rate = 0.1
*.Repeater.**.z_measurement_error_rate = 0.1
**.memory_x_error_rate = 0
**.memory_y_error_rate = 0
**.memory_z_error_rate = 0
**.channel_loss_rate = 0.04500741397
repeat = 30
seed-set = ${repetition}
**.photon_detection_per_second = 1000000000 # 1GHz
**.qrsa.hm.link_tomography = false
**.qrsa.hm.initial_purification = 0
**.qrsa.hm.purification_type = ""
*.alice.is_initiator = true
**.buffers = 1
**.app.number_of_bellpair = 10000
**.qrsa.hm.num_measure = 10


[Config swapping_validation_cnot_975_meas_1_with_inf_coherence_time_for_10000_pairs]
network = networks.cross_validation_swapping