[General]
repeat = 1
seed-set =  ${repetition}
sim-time-limit = 250s
**.initial_notification_timing_buffer = 10s # when to start the BSA timing notification.
**.app.request_generation_interval = 2s
**.logger.enabled_log = false
**.logger.log_filename = "networks/${resultdir}/${configname}-${runnumber}.jsonl"
**.tomography_output_filename = "${resultdir}/${configname}.output"
**.statistic-recording = false
**.scalar-recording = false
**.vector-recording = false
**.speed_of_light_in_fiber = 208189.206944km

**.channel_loss_rate = 0.04500741397 # per km. 1 - 10^(-0.2/10)
**.channel_x_error_rate = 0
**.channel_z_error_rate = 0
**.channel_y_error_rate = 0

**.collection_efficiency = 1
**.darkcount_probability = 0
**.detection_efficiency = 1
**.indistinguishable_time_window = 1.5ns
**.photon_detection_per_second = 1000000 # 1MHz

**.x_gate_error_rate = 0
**.x_gate_x_error_ratio = 0
**.x_gate_y_error_ratio = 0
**.x_gate_z_error_ratio = 0

**.z_gate_error_rate = 0
**.z_gate_x_error_ratio = 0
**.z_gate_y_error_ratio = 0
**.z_gate_z_error_ratio = 0

# CNOT error parameters
**.cnot_gate_error_rate = 0
**.cnot_gate_ix_error_ratio = 0
**.cnot_gate_iy_error_ratio = 0
**.cnot_gate_iz_error_ratio = 0
**.cnot_gate_xi_error_ratio = 0
**.cnot_gate_xx_error_ratio = 0
**.cnot_gate_xy_error_ratio = 0
**.cnot_gate_xz_error_ratio = 0
**.cnot_gate_yi_error_ratio = 0
**.cnot_gate_yx_error_ratio = 0
**.cnot_gate_yy_error_ratio = 0
**.cnot_gate_yz_error_ratio = 0
**.cnot_gate_zi_error_ratio = 0
**.cnot_gate_zx_error_ratio = 0
**.cnot_gate_zy_error_ratio = 0
**.cnot_gate_zz_error_ratio = 0

# memory error parameters
**.memory_x_error_rate = 0
**.memory_y_error_rate = 0
**.memory_z_error_rate = 0
**.memory_energy_excitation_rate = 0
**.memory_energy_relaxation_rate = 0
**.memory_completely_mixed_rate = 0

# measurement error parameters
**.x_measurement_error_rate = 0
**.z_measurement_error_rate = 0
**.y_measurement_error_rate = 0

# simulation parameters
**.app.number_of_bellpair = 50000
**.buffers = 1
**.qrsa.hm.num_measure = 50000



[Config swapping_validation_cnot_05_meas_1_with_1000_coherence_time_for_10000_pairs_deterministic]
network = networks.cross_validation_swapping
**.cnot_gate_error_rate = 0.05
*.Repeater.**.x_measurement_error_rate = 0.1
*.Repeater.**.y_measurement_error_rate = 0.1
*.Repeater.**.z_measurement_error_rate = 0.1
**.memory_x_error_rate = 0.00046217495864766525
**.memory_y_error_rate = 0.00046217495864766525
**.memory_z_error_rate = 0.00046217495864766525
**.channel_loss_rate = 0
repeat = 30
seed-set = ${repetition}
**.photon_detection_per_second = 1000000000 # 1GHz
**.qrsa.hm.link_tomography = false
**.qrsa.hm.initial_purification = 0
**.qrsa.hm.purification_type = ""
*.alice.is_initiator = true
**.buffers = 1
**.app.number_of_bellpair = 10000
**.qrsa.hm.num_measure = 10


[Config swapping_validation_cnot_05_meas_1_with_1125_coherence_time_for_10000_pairs_deterministic]
network = networks.cross_validation_swapping
**.cnot_gate_error_rate = 0.05
*.Repeater.**.x_measurement_error_rate = 0.1
*.Repeater.**.y_measurement_error_rate = 0.1
*.Repeater.**.z_measurement_error_rate = 0.1
**.memory_x_error_rate = 0.00041086440810431666
**.memory_y_error_rate = 0.00041086440810431666
**.memory_z_error_rate = 0.00041086440810431666
**.channel_loss_rate = 0
repeat = 30
seed-set = ${repetition}
**.photon_detection_per_second = 1000000000 # 1GHz
**.qrsa.hm.link_tomography = false
**.qrsa.hm.initial_purification = 0
**.qrsa.hm.purification_type = ""
*.alice.is_initiator = true
**.buffers = 1
**.app.number_of_bellpair = 10000
**.qrsa.hm.num_measure = 10


[Config swapping_validation_cnot_05_meas_1_with_1266_coherence_time_for_10000_pairs_deterministic]
network = networks.cross_validation_swapping
**.cnot_gate_error_rate = 0.05
*.Repeater.**.x_measurement_error_rate = 0.1
*.Repeater.**.y_measurement_error_rate = 0.1
*.Repeater.**.z_measurement_error_rate = 0.1
**.memory_x_error_rate = 0.00036513806262519213
**.memory_y_error_rate = 0.00036513806262519213
**.memory_z_error_rate = 0.00036513806262519213
**.channel_loss_rate = 0
repeat = 30
seed-set = ${repetition}
**.photon_detection_per_second = 1000000000 # 1GHz
**.qrsa.hm.link_tomography = false
**.qrsa.hm.initial_purification = 0
**.qrsa.hm.purification_type = ""
*.alice.is_initiator = true
**.buffers = 1
**.app.number_of_bellpair = 10000
**.qrsa.hm.num_measure = 10


[Config swapping_validation_cnot_05_meas_1_with_1425_coherence_time_for_10000_pairs_deterministic]
network = networks.cross_validation_swapping
**.cnot_gate_error_rate = 0.05
*.Repeater.**.x_measurement_error_rate = 0.1
*.Repeater.**.y_measurement_error_rate = 0.1
*.Repeater.**.z_measurement_error_rate = 0.1
**.memory_x_error_rate = 0.00032442278925373116
**.memory_y_error_rate = 0.00032442278925373116
**.memory_z_error_rate = 0.00032442278925373116
**.channel_loss_rate = 0
repeat = 30
seed-set = ${repetition}
**.photon_detection_per_second = 1000000000 # 1GHz
**.qrsa.hm.link_tomography = false
**.qrsa.hm.initial_purification = 0
**.qrsa.hm.purification_type = ""
*.alice.is_initiator = true
**.buffers = 1
**.app.number_of_bellpair = 10000
**.qrsa.hm.num_measure = 10


[Config swapping_validation_cnot_05_meas_1_with_1604_coherence_time_for_10000_pairs_deterministic]
network = networks.cross_validation_swapping
**.cnot_gate_error_rate = 0.05
*.Repeater.**.x_measurement_error_rate = 0.1
*.Repeater.**.y_measurement_error_rate = 0.1
*.Repeater.**.z_measurement_error_rate = 0.1
**.memory_x_error_rate = 0.00028823937996094175
**.memory_y_error_rate = 0.00028823937996094175
**.memory_z_error_rate = 0.00028823937996094175
**.channel_loss_rate = 0
repeat = 30
seed-set = ${repetition}
**.photon_detection_per_second = 1000000000 # 1GHz
**.qrsa.hm.link_tomography = false
**.qrsa.hm.initial_purification = 0
**.qrsa.hm.purification_type = ""
*.alice.is_initiator = true
**.buffers = 1
**.app.number_of_bellpair = 10000
**.qrsa.hm.num_measure = 10


[Config swapping_validation_cnot_05_meas_1_with_1805_coherence_time_for_10000_pairs_deterministic]
network = networks.cross_validation_swapping
**.cnot_gate_error_rate = 0.05
*.Repeater.**.x_measurement_error_rate = 0.1
*.Repeater.**.y_measurement_error_rate = 0.1
*.Repeater.**.z_measurement_error_rate = 0.1
**.memory_x_error_rate = 0.0002561582592079503
**.memory_y_error_rate = 0.0002561582592079503
**.memory_z_error_rate = 0.0002561582592079503
**.channel_loss_rate = 0
repeat = 30
seed-set = ${repetition}
**.photon_detection_per_second = 1000000000 # 1GHz
**.qrsa.hm.link_tomography = false
**.qrsa.hm.initial_purification = 0
**.qrsa.hm.purification_type = ""
*.alice.is_initiator = true
**.buffers = 1
**.app.number_of_bellpair = 10000
**.qrsa.hm.num_measure = 10


[Config swapping_validation_cnot_05_meas_1_with_2031_coherence_time_for_10000_pairs_deterministic]
network = networks.cross_validation_swapping
**.cnot_gate_error_rate = 0.05
*.Repeater.**.x_measurement_error_rate = 0.1
*.Repeater.**.y_measurement_error_rate = 0.1
*.Repeater.**.z_measurement_error_rate = 0.1
**.memory_x_error_rate = 0.00022766717204376614
**.memory_y_error_rate = 0.00022766717204376614
**.memory_z_error_rate = 0.00022766717204376614
**.channel_loss_rate = 0
repeat = 30
seed-set = ${repetition}
**.photon_detection_per_second = 1000000000 # 1GHz
**.qrsa.hm.link_tomography = false
**.qrsa.hm.initial_purification = 0
**.qrsa.hm.purification_type = ""
*.alice.is_initiator = true
**.buffers = 1
**.app.number_of_bellpair = 10000
**.qrsa.hm.num_measure = 10


[Config swapping_validation_cnot_05_meas_1_with_2285_coherence_time_for_10000_pairs_deterministic]
network = networks.cross_validation_swapping
**.cnot_gate_error_rate = 0.05
*.Repeater.**.x_measurement_error_rate = 0.1
*.Repeater.**.y_measurement_error_rate = 0.1
*.Repeater.**.z_measurement_error_rate = 0.1
**.memory_x_error_rate = 0.0002023699948267676
**.memory_y_error_rate = 0.0002023699948267676
**.memory_z_error_rate = 0.0002023699948267676
**.channel_loss_rate = 0
repeat = 30
seed-set = ${repetition}
**.photon_detection_per_second = 1000000000 # 1GHz
**.qrsa.hm.link_tomography = false
**.qrsa.hm.initial_purification = 0
**.qrsa.hm.purification_type = ""
*.alice.is_initiator = true
**.buffers = 1
**.app.number_of_bellpair = 10000
**.qrsa.hm.num_measure = 10


[Config swapping_validation_cnot_05_meas_1_with_2572_coherence_time_for_10000_pairs_deterministic]
network = networks.cross_validation_swapping
**.cnot_gate_error_rate = 0.05
*.Repeater.**.x_measurement_error_rate = 0.1
*.Repeater.**.y_measurement_error_rate = 0.1
*.Repeater.**.z_measurement_error_rate = 0.1
**.memory_x_error_rate = 0.0001797963952867576
**.memory_y_error_rate = 0.0001797963952867576
**.memory_z_error_rate = 0.0001797963952867576
**.channel_loss_rate = 0
repeat = 30
seed-set = ${repetition}
**.photon_detection_per_second = 1000000000 # 1GHz
**.qrsa.hm.link_tomography = false
**.qrsa.hm.initial_purification = 0
**.qrsa.hm.purification_type = ""
*.alice.is_initiator = true
**.buffers = 1
**.app.number_of_bellpair = 10000
**.qrsa.hm.num_measure = 10


[Config swapping_validation_cnot_05_meas_1_with_2894_coherence_time_for_10000_pairs_deterministic]
network = networks.cross_validation_swapping
**.cnot_gate_error_rate = 0.05
*.Repeater.**.x_measurement_error_rate = 0.1
*.Repeater.**.y_measurement_error_rate = 0.1
*.Repeater.**.z_measurement_error_rate = 0.1
**.memory_x_error_rate = 0.00015979780084762751
**.memory_y_error_rate = 0.00015979780084762751
**.memory_z_error_rate = 0.00015979780084762751
**.channel_loss_rate = 0
repeat = 30
seed-set = ${repetition}
**.photon_detection_per_second = 1000000000 # 1GHz
**.qrsa.hm.link_tomography = false
**.qrsa.hm.initial_purification = 0
**.qrsa.hm.purification_type = ""
*.alice.is_initiator = true
**.buffers = 1
**.app.number_of_bellpair = 10000
**.qrsa.hm.num_measure = 10


[Config swapping_validation_cnot_05_meas_1_with_3257_coherence_time_for_10000_pairs_deterministic]
network = networks.cross_validation_swapping
**.cnot_gate_error_rate = 0.05
*.Repeater.**.x_measurement_error_rate = 0.1
*.Repeater.**.y_measurement_error_rate = 0.1
*.Repeater.**.z_measurement_error_rate = 0.1
**.memory_x_error_rate = 0.000141993034094412
**.memory_y_error_rate = 0.000141993034094412
**.memory_z_error_rate = 0.000141993034094412
**.channel_loss_rate = 0
repeat = 30
seed-set = ${repetition}
**.photon_detection_per_second = 1000000000 # 1GHz
**.qrsa.hm.link_tomography = false
**.qrsa.hm.initial_purification = 0
**.qrsa.hm.purification_type = ""
*.alice.is_initiator = true
**.buffers = 1
**.app.number_of_bellpair = 10000
**.qrsa.hm.num_measure = 10


[Config swapping_validation_cnot_05_meas_1_with_3665_coherence_time_for_10000_pairs_deterministic]
network = networks.cross_validation_swapping
**.cnot_gate_error_rate = 0.05
*.Repeater.**.x_measurement_error_rate = 0.1
*.Repeater.**.y_measurement_error_rate = 0.1
*.Repeater.**.z_measurement_error_rate = 0.1
**.memory_x_error_rate = 0.000126189887032524
**.memory_y_error_rate = 0.000126189887032524
**.memory_z_error_rate = 0.000126189887032524
**.channel_loss_rate = 0
repeat = 30
seed-set = ${repetition}
**.photon_detection_per_second = 1000000000 # 1GHz
**.qrsa.hm.link_tomography = false
**.qrsa.hm.initial_purification = 0
**.qrsa.hm.purification_type = ""
*.alice.is_initiator = true
**.buffers = 1
**.app.number_of_bellpair = 10000
**.qrsa.hm.num_measure = 10


[Config swapping_validation_cnot_05_meas_1_with_4125_coherence_time_for_10000_pairs_deterministic]
network = networks.cross_validation_swapping
**.cnot_gate_error_rate = 0.05
*.Repeater.**.x_measurement_error_rate = 0.1
*.Repeater.**.y_measurement_error_rate = 0.1
*.Repeater.**.z_measurement_error_rate = 0.1
**.memory_x_error_rate = 0.00011212095866994789
**.memory_y_error_rate = 0.00011212095866994789
**.memory_z_error_rate = 0.00011212095866994789
**.channel_loss_rate = 0
repeat = 30
seed-set = ${repetition}
**.photon_detection_per_second = 1000000000 # 1GHz
**.qrsa.hm.link_tomography = false
**.qrsa.hm.initial_purification = 0
**.qrsa.hm.purification_type = ""
*.alice.is_initiator = true
**.buffers = 1
**.app.number_of_bellpair = 10000
**.qrsa.hm.num_measure = 10


[Config swapping_validation_cnot_05_meas_1_with_4642_coherence_time_for_10000_pairs_deterministic]
network = networks.cross_validation_swapping
**.cnot_gate_error_rate = 0.05
*.Repeater.**.x_measurement_error_rate = 0.1
*.Repeater.**.y_measurement_error_rate = 0.1
*.Repeater.**.z_measurement_error_rate = 0.1
**.memory_x_error_rate = 9.9636042068596e-05
**.memory_y_error_rate = 9.9636042068596e-05
**.memory_z_error_rate = 9.9636042068596e-05
**.channel_loss_rate = 0
repeat = 30
seed-set = ${repetition}
**.photon_detection_per_second = 1000000000 # 1GHz
**.qrsa.hm.link_tomography = false
**.qrsa.hm.initial_purification = 0
**.qrsa.hm.purification_type = ""
*.alice.is_initiator = true
**.buffers = 1
**.app.number_of_bellpair = 10000
**.qrsa.hm.num_measure = 10


[Config swapping_validation_cnot_05_meas_1_with_5223_coherence_time_for_10000_pairs_deterministic]
network = networks.cross_validation_swapping
**.cnot_gate_error_rate = 0.05
*.Repeater.**.x_measurement_error_rate = 0.1
*.Repeater.**.y_measurement_error_rate = 0.1
*.Repeater.**.z_measurement_error_rate = 0.1
**.memory_x_error_rate = 8.855461635448592e-05
**.memory_y_error_rate = 8.855461635448592e-05
**.memory_z_error_rate = 8.855461635448592e-05
**.channel_loss_rate = 0
repeat = 30
seed-set = ${repetition}
**.photon_detection_per_second = 1000000000 # 1GHz
**.qrsa.hm.link_tomography = false
**.qrsa.hm.initial_purification = 0
**.qrsa.hm.purification_type = ""
*.alice.is_initiator = true
**.buffers = 1
**.app.number_of_bellpair = 10000
**.qrsa.hm.num_measure = 10


[Config swapping_validation_cnot_05_meas_1_with_5878_coherence_time_for_10000_pairs_deterministic]
network = networks.cross_validation_swapping
**.cnot_gate_error_rate = 0.05
*.Repeater.**.x_measurement_error_rate = 0.1
*.Repeater.**.y_measurement_error_rate = 0.1
*.Repeater.**.z_measurement_error_rate = 0.1
**.memory_x_error_rate = 7.868831073665206e-05
**.memory_y_error_rate = 7.868831073665206e-05
**.memory_z_error_rate = 7.868831073665206e-05
**.channel_loss_rate = 0
repeat = 30
seed-set = ${repetition}
**.photon_detection_per_second = 1000000000 # 1GHz
**.qrsa.hm.link_tomography = false
**.qrsa.hm.initial_purification = 0
**.qrsa.hm.purification_type = ""
*.alice.is_initiator = true
**.buffers = 1
**.app.number_of_bellpair = 10000
**.qrsa.hm.num_measure = 10


[Config swapping_validation_cnot_05_meas_1_with_6615_coherence_time_for_10000_pairs_deterministic]
network = networks.cross_validation_swapping
**.cnot_gate_error_rate = 0.05
*.Repeater.**.x_measurement_error_rate = 0.1
*.Repeater.**.y_measurement_error_rate = 0.1
*.Repeater.**.z_measurement_error_rate = 0.1
**.memory_x_error_rate = 6.99226003689546e-05
**.memory_y_error_rate = 6.99226003689546e-05
**.memory_z_error_rate = 6.99226003689546e-05
**.channel_loss_rate = 0
repeat = 30
seed-set = ${repetition}
**.photon_detection_per_second = 1000000000 # 1GHz
**.qrsa.hm.link_tomography = false
**.qrsa.hm.initial_purification = 0
**.qrsa.hm.purification_type = ""
*.alice.is_initiator = true
**.buffers = 1
**.app.number_of_bellpair = 10000
**.qrsa.hm.num_measure = 10


[Config swapping_validation_cnot_05_meas_1_with_7444_coherence_time_for_10000_pairs_deterministic]
network = networks.cross_validation_swapping
**.cnot_gate_error_rate = 0.05
*.Repeater.**.x_measurement_error_rate = 0.1
*.Repeater.**.y_measurement_error_rate = 0.1
*.Repeater.**.z_measurement_error_rate = 0.1
**.memory_x_error_rate = 6.213664773326854e-05
**.memory_y_error_rate = 6.213664773326854e-05
**.memory_z_error_rate = 6.213664773326854e-05
**.channel_loss_rate = 0
repeat = 30
seed-set = ${repetition}
**.photon_detection_per_second = 1000000000 # 1GHz
**.qrsa.hm.link_tomography = false
**.qrsa.hm.initial_purification = 0
**.qrsa.hm.purification_type = ""
*.alice.is_initiator = true
**.buffers = 1
**.app.number_of_bellpair = 10000
**.qrsa.hm.num_measure = 10


[Config swapping_validation_cnot_05_meas_1_with_8377_coherence_time_for_10000_pairs_deterministic]
network = networks.cross_validation_swapping
**.cnot_gate_error_rate = 0.05
*.Repeater.**.x_measurement_error_rate = 0.1
*.Repeater.**.y_measurement_error_rate = 0.1
*.Repeater.**.z_measurement_error_rate = 0.1
**.memory_x_error_rate = 5.5216856674178415e-05
**.memory_y_error_rate = 5.5216856674178415e-05
**.memory_z_error_rate = 5.5216856674178415e-05
**.channel_loss_rate = 0
repeat = 30
seed-set = ${repetition}
**.photon_detection_per_second = 1000000000 # 1GHz
**.qrsa.hm.link_tomography = false
**.qrsa.hm.initial_purification = 0
**.qrsa.hm.purification_type = ""
*.alice.is_initiator = true
**.buffers = 1
**.app.number_of_bellpair = 10000
**.qrsa.hm.num_measure = 10


[Config swapping_validation_cnot_05_meas_1_with_9427_coherence_time_for_10000_pairs_deterministic]
network = networks.cross_validation_swapping
**.cnot_gate_error_rate = 0.05
*.Repeater.**.x_measurement_error_rate = 0.1
*.Repeater.**.y_measurement_error_rate = 0.1
*.Repeater.**.z_measurement_error_rate = 0.1
**.memory_x_error_rate = 4.9067285283399534e-05
**.memory_y_error_rate = 4.9067285283399534e-05
**.memory_z_error_rate = 4.9067285283399534e-05
**.channel_loss_rate = 0
repeat = 30
seed-set = ${repetition}
**.photon_detection_per_second = 1000000000 # 1GHz
**.qrsa.hm.link_tomography = false
**.qrsa.hm.initial_purification = 0
**.qrsa.hm.purification_type = ""
*.alice.is_initiator = true
**.buffers = 1
**.app.number_of_bellpair = 10000
**.qrsa.hm.num_measure = 10


[Config swapping_validation_cnot_05_meas_1_with_10608_coherence_time_for_10000_pairs_deterministic]
network = networks.cross_validation_swapping
**.cnot_gate_error_rate = 0.05
*.Repeater.**.x_measurement_error_rate = 0.1
*.Repeater.**.y_measurement_error_rate = 0.1
*.Repeater.**.z_measurement_error_rate = 0.1
**.memory_x_error_rate = 4.3605048301742495e-05
**.memory_y_error_rate = 4.3605048301742495e-05
**.memory_z_error_rate = 4.3605048301742495e-05
**.channel_loss_rate = 0
repeat = 30
seed-set = ${repetition}
**.photon_detection_per_second = 1000000000 # 1GHz
**.qrsa.hm.link_tomography = false
**.qrsa.hm.initial_purification = 0
**.qrsa.hm.purification_type = ""
*.alice.is_initiator = true
**.buffers = 1
**.app.number_of_bellpair = 10000
**.qrsa.hm.num_measure = 10


[Config swapping_validation_cnot_05_meas_1_with_11938_coherence_time_for_10000_pairs_deterministic]
network = networks.cross_validation_swapping
**.cnot_gate_error_rate = 0.05
*.Repeater.**.x_measurement_error_rate = 0.1
*.Repeater.**.y_measurement_error_rate = 0.1
*.Repeater.**.z_measurement_error_rate = 0.1
**.memory_x_error_rate = 3.874743231335742e-05
**.memory_y_error_rate = 3.874743231335742e-05
**.memory_z_error_rate = 3.874743231335742e-05
**.channel_loss_rate = 0
repeat = 30
seed-set = ${repetition}
**.photon_detection_per_second = 1000000000 # 1GHz
**.qrsa.hm.link_tomography = false
**.qrsa.hm.initial_purification = 0
**.qrsa.hm.purification_type = ""
*.alice.is_initiator = true
**.buffers = 1
**.app.number_of_bellpair = 10000
**.qrsa.hm.num_measure = 10


[Config swapping_validation_cnot_05_meas_1_with_13434_coherence_time_for_10000_pairs_deterministic]
network = networks.cross_validation_swapping
**.cnot_gate_error_rate = 0.05
*.Repeater.**.x_measurement_error_rate = 0.1
*.Repeater.**.y_measurement_error_rate = 0.1
*.Repeater.**.z_measurement_error_rate = 0.1
**.memory_x_error_rate = 3.443284494437648e-05
**.memory_y_error_rate = 3.443284494437648e-05
**.memory_z_error_rate = 3.443284494437648e-05
**.channel_loss_rate = 0
repeat = 30
seed-set = ${repetition}
**.photon_detection_per_second = 1000000000 # 1GHz
**.qrsa.hm.link_tomography = false
**.qrsa.hm.initial_purification = 0
**.qrsa.hm.purification_type = ""
*.alice.is_initiator = true
**.buffers = 1
**.app.number_of_bellpair = 10000
**.qrsa.hm.num_measure = 10


[Config swapping_validation_cnot_05_meas_1_with_15118_coherence_time_for_10000_pairs_deterministic]
network = networks.cross_validation_swapping
**.cnot_gate_error_rate = 0.05
*.Repeater.**.x_measurement_error_rate = 0.1
*.Repeater.**.y_measurement_error_rate = 0.1
*.Repeater.**.z_measurement_error_rate = 0.1
**.memory_x_error_rate = 3.059759145571661e-05
**.memory_y_error_rate = 3.059759145571661e-05
**.memory_z_error_rate = 3.059759145571661e-05
**.channel_loss_rate = 0
repeat = 30
seed-set = ${repetition}
**.photon_detection_per_second = 1000000000 # 1GHz
**.qrsa.hm.link_tomography = false
**.qrsa.hm.initial_purification = 0
**.qrsa.hm.purification_type = ""
*.alice.is_initiator = true
**.buffers = 1
**.app.number_of_bellpair = 10000
**.qrsa.hm.num_measure = 10


[Config swapping_validation_cnot_05_meas_1_with_17013_coherence_time_for_10000_pairs_deterministic]
network = networks.cross_validation_swapping
**.cnot_gate_error_rate = 0.05
*.Repeater.**.x_measurement_error_rate = 0.1
*.Repeater.**.y_measurement_error_rate = 0.1
*.Repeater.**.z_measurement_error_rate = 0.1
**.memory_x_error_rate = 2.7189651490289176e-05
**.memory_y_error_rate = 2.7189651490289176e-05
**.memory_z_error_rate = 2.7189651490289176e-05
**.channel_loss_rate = 0
repeat = 30
seed-set = ${repetition}
**.photon_detection_per_second = 1000000000 # 1GHz
**.qrsa.hm.link_tomography = false
**.qrsa.hm.initial_purification = 0
**.qrsa.hm.purification_type = ""
*.alice.is_initiator = true
**.buffers = 1
**.app.number_of_bellpair = 10000
**.qrsa.hm.num_measure = 10


[Config swapping_validation_cnot_05_meas_1_with_19145_coherence_time_for_10000_pairs_deterministic]
network = networks.cross_validation_swapping
**.cnot_gate_error_rate = 0.05
*.Repeater.**.x_measurement_error_rate = 0.1
*.Repeater.**.y_measurement_error_rate = 0.1
*.Repeater.**.z_measurement_error_rate = 0.1
**.memory_x_error_rate = 2.4161940041267373e-05
**.memory_y_error_rate = 2.4161940041267373e-05
**.memory_z_error_rate = 2.4161940041267373e-05
**.channel_loss_rate = 0
repeat = 30
seed-set = ${repetition}
**.photon_detection_per_second = 1000000000 # 1GHz
**.qrsa.hm.link_tomography = false
**.qrsa.hm.initial_purification = 0
**.qrsa.hm.purification_type = ""
*.alice.is_initiator = true
**.buffers = 1
**.app.number_of_bellpair = 10000
**.qrsa.hm.num_measure = 10


[Config swapping_validation_cnot_05_meas_1_with_21544_coherence_time_for_10000_pairs_deterministic]
network = networks.cross_validation_swapping
**.cnot_gate_error_rate = 0.05
*.Repeater.**.x_measurement_error_rate = 0.1
*.Repeater.**.y_measurement_error_rate = 0.1
*.Repeater.**.z_measurement_error_rate = 0.1
**.memory_x_error_rate = 2.1471538778428107e-05
**.memory_y_error_rate = 2.1471538778428107e-05
**.memory_z_error_rate = 2.1471538778428107e-05
**.channel_loss_rate = 0
repeat = 30
seed-set = ${repetition}
**.photon_detection_per_second = 1000000000 # 1GHz
**.qrsa.hm.link_tomography = false
**.qrsa.hm.initial_purification = 0
**.qrsa.hm.purification_type = ""
*.alice.is_initiator = true
**.buffers = 1
**.app.number_of_bellpair = 10000
**.qrsa.hm.num_measure = 10


[Config swapping_validation_cnot_05_meas_1_with_24245_coherence_time_for_10000_pairs_deterministic]
network = networks.cross_validation_swapping
**.cnot_gate_error_rate = 0.05
*.Repeater.**.x_measurement_error_rate = 0.1
*.Repeater.**.y_measurement_error_rate = 0.1
*.Repeater.**.z_measurement_error_rate = 0.1
**.memory_x_error_rate = 1.9079605880278902e-05
**.memory_y_error_rate = 1.9079605880278902e-05
**.memory_z_error_rate = 1.9079605880278902e-05
**.channel_loss_rate = 0
repeat = 30
seed-set = ${repetition}
**.photon_detection_per_second = 1000000000 # 1GHz
**.qrsa.hm.link_tomography = false
**.qrsa.hm.initial_purification = 0
**.qrsa.hm.purification_type = ""
*.alice.is_initiator = true
**.buffers = 1
**.app.number_of_bellpair = 10000
**.qrsa.hm.num_measure = 10


[Config swapping_validation_cnot_05_meas_1_with_27283_coherence_time_for_10000_pairs_deterministic]
network = networks.cross_validation_swapping
**.cnot_gate_error_rate = 0.05
*.Repeater.**.x_measurement_error_rate = 0.1
*.Repeater.**.y_measurement_error_rate = 0.1
*.Repeater.**.z_measurement_error_rate = 0.1
**.memory_x_error_rate = 1.695513726645003e-05
**.memory_y_error_rate = 1.695513726645003e-05
**.memory_z_error_rate = 1.695513726645003e-05
**.channel_loss_rate = 0
repeat = 30
seed-set = ${repetition}
**.photon_detection_per_second = 1000000000 # 1GHz
**.qrsa.hm.link_tomography = false
**.qrsa.hm.initial_purification = 0
**.qrsa.hm.purification_type = ""
*.alice.is_initiator = true
**.buffers = 1
**.app.number_of_bellpair = 10000
**.qrsa.hm.num_measure = 10


[Config swapping_validation_cnot_05_meas_1_with_30703_coherence_time_for_10000_pairs_deterministic]
network = networks.cross_validation_swapping
**.cnot_gate_error_rate = 0.05
*.Repeater.**.x_measurement_error_rate = 0.1
*.Repeater.**.y_measurement_error_rate = 0.1
*.Repeater.**.z_measurement_error_rate = 0.1
**.memory_x_error_rate = 1.5066565399024507e-05
**.memory_y_error_rate = 1.5066565399024507e-05
**.memory_z_error_rate = 1.5066565399024507e-05
**.channel_loss_rate = 0
repeat = 30
seed-set = ${repetition}
**.photon_detection_per_second = 1000000000 # 1GHz
**.qrsa.hm.link_tomography = false
**.qrsa.hm.initial_purification = 0
**.qrsa.hm.purification_type = ""
*.alice.is_initiator = true
**.buffers = 1
**.app.number_of_bellpair = 10000
**.qrsa.hm.num_measure = 10


[Config swapping_validation_cnot_05_meas_1_with_34551_coherence_time_for_10000_pairs_deterministic]
network = networks.cross_validation_swapping
**.cnot_gate_error_rate = 0.05
*.Repeater.**.x_measurement_error_rate = 0.1
*.Repeater.**.y_measurement_error_rate = 0.1
*.Repeater.**.z_measurement_error_rate = 0.1
**.memory_x_error_rate = 1.338862290367615e-05
**.memory_y_error_rate = 1.338862290367615e-05
**.memory_z_error_rate = 1.338862290367615e-05
**.channel_loss_rate = 0
repeat = 30
seed-set = ${repetition}
**.photon_detection_per_second = 1000000000 # 1GHz
**.qrsa.hm.link_tomography = false
**.qrsa.hm.initial_purification = 0
**.qrsa.hm.purification_type = ""
*.alice.is_initiator = true
**.buffers = 1
**.app.number_of_bellpair = 10000
**.qrsa.hm.num_measure = 10


[Config swapping_validation_cnot_05_meas_1_with_38882_coherence_time_for_10000_pairs_deterministic]
network = networks.cross_validation_swapping
**.cnot_gate_error_rate = 0.05
*.Repeater.**.x_measurement_error_rate = 0.1
*.Repeater.**.y_measurement_error_rate = 0.1
*.Repeater.**.z_measurement_error_rate = 0.1
**.memory_x_error_rate = 1.1897322406184684e-05
**.memory_y_error_rate = 1.1897322406184684e-05
**.memory_z_error_rate = 1.1897322406184684e-05
**.channel_loss_rate = 0
repeat = 30
seed-set = ${repetition}
**.photon_detection_per_second = 1000000000 # 1GHz
**.qrsa.hm.link_tomography = false
**.qrsa.hm.initial_purification = 0
**.qrsa.hm.purification_type = ""
*.alice.is_initiator = true
**.buffers = 1
**.app.number_of_bellpair = 10000
**.qrsa.hm.num_measure = 10


[Config swapping_validation_cnot_05_meas_1_with_43755_coherence_time_for_10000_pairs_deterministic]
network = networks.cross_validation_swapping
**.cnot_gate_error_rate = 0.05
*.Repeater.**.x_measurement_error_rate = 0.1
*.Repeater.**.y_measurement_error_rate = 0.1
*.Repeater.**.z_measurement_error_rate = 0.1
**.memory_x_error_rate = 1.0572344088188853e-05
**.memory_y_error_rate = 1.0572344088188853e-05
**.memory_z_error_rate = 1.0572344088188853e-05
**.channel_loss_rate = 0
repeat = 30
seed-set = ${repetition}
**.photon_detection_per_second = 1000000000 # 1GHz
**.qrsa.hm.link_tomography = false
**.qrsa.hm.initial_purification = 0
**.qrsa.hm.purification_type = ""
*.alice.is_initiator = true
**.buffers = 1
**.app.number_of_bellpair = 10000
**.qrsa.hm.num_measure = 10


[Config swapping_validation_cnot_05_meas_1_with_49239_coherence_time_for_10000_pairs_deterministic]
network = networks.cross_validation_swapping
**.cnot_gate_error_rate = 0.05
*.Repeater.**.x_measurement_error_rate = 0.1
*.Repeater.**.y_measurement_error_rate = 0.1
*.Repeater.**.z_measurement_error_rate = 0.1
**.memory_x_error_rate = 9.394870021139921e-06
**.memory_y_error_rate = 9.394870021139921e-06
**.memory_z_error_rate = 9.394870021139921e-06
**.channel_loss_rate = 0
repeat = 30
seed-set = ${repetition}
**.photon_detection_per_second = 1000000000 # 1GHz
**.qrsa.hm.link_tomography = false
**.qrsa.hm.initial_purification = 0
**.qrsa.hm.purification_type = ""
*.alice.is_initiator = true
**.buffers = 1
**.app.number_of_bellpair = 10000
**.qrsa.hm.num_measure = 10


[Config swapping_validation_cnot_05_meas_1_with_55410_coherence_time_for_10000_pairs_deterministic]
network = networks.cross_validation_swapping
**.cnot_gate_error_rate = 0.05
*.Repeater.**.x_measurement_error_rate = 0.1
*.Repeater.**.y_measurement_error_rate = 0.1
*.Repeater.**.z_measurement_error_rate = 0.1
**.memory_x_error_rate = 8.348582802142345e-06
**.memory_y_error_rate = 8.348582802142345e-06
**.memory_z_error_rate = 8.348582802142345e-06
**.channel_loss_rate = 0
repeat = 30
seed-set = ${repetition}
**.photon_detection_per_second = 1000000000 # 1GHz
**.qrsa.hm.link_tomography = false
**.qrsa.hm.initial_purification = 0
**.qrsa.hm.purification_type = ""
*.alice.is_initiator = true
**.buffers = 1
**.app.number_of_bellpair = 10000
**.qrsa.hm.num_measure = 10


[Config swapping_validation_cnot_05_meas_1_with_62355_coherence_time_for_10000_pairs_deterministic]
network = networks.cross_validation_swapping
**.cnot_gate_error_rate = 0.05
*.Repeater.**.x_measurement_error_rate = 0.1
*.Repeater.**.y_measurement_error_rate = 0.1
*.Repeater.**.z_measurement_error_rate = 0.1
**.memory_x_error_rate = 7.418744820597567e-06
**.memory_y_error_rate = 7.418744820597567e-06
**.memory_z_error_rate = 7.418744820597567e-06
**.channel_loss_rate = 0
repeat = 30
seed-set = ${repetition}
**.photon_detection_per_second = 1000000000 # 1GHz
**.qrsa.hm.link_tomography = false
**.qrsa.hm.initial_purification = 0
**.qrsa.hm.purification_type = ""
*.alice.is_initiator = true
**.buffers = 1