[General]
repeat = 1
seed-set =  ${repetition}
sim-time-limit = 250s
**.initial_notification_timing_buffer = 10s # when to start the BSA timing notification.
**.app.request_generation_interval = 2s
**.logger.enabled_log = false
**.logger.log_filename = "networks/${resultdir}/${configname}-${runnumber}.jsonl"
**.tomography_output_filename = "${resultdir}/${configname}.output"
**.statistic-recording = false
**.scalar-recording = false
**.vector-recording = false
**.speed_of_light_in_fiber = 208189.206944km

**.channel_loss_rate = 0.04500741397 # per km. 1 - 10^(-0.2/10)
**.channel_x_error_rate = 0
**.channel_z_error_rate = 0
**.channel_y_error_rate = 0

**.collection_efficiency = 1
**.darkcount_probability = 0
**.detection_efficiency = 1
**.indistinguishable_time_window = 1.5ns
**.photon_detection_per_second = 1000000 # 1MHz

**.x_gate_error_rate = 0
**.x_gate_x_error_ratio = 0
**.x_gate_y_error_ratio = 0
**.x_gate_z_error_ratio = 0

**.z_gate_error_rate = 0
**.z_gate_x_error_ratio = 0
**.z_gate_y_error_ratio = 0
**.z_gate_z_error_ratio = 0

# CNOT error parameters
**.cnot_gate_error_rate = 0
**.cnot_gate_ix_error_ratio = 0
**.cnot_gate_iy_error_ratio = 0
**.cnot_gate_iz_error_ratio = 0
**.cnot_gate_xi_error_ratio = 0
**.cnot_gate_xx_error_ratio = 0
**.cnot_gate_xy_error_ratio = 0
**.cnot_gate_xz_error_ratio = 0
**.cnot_gate_yi_error_ratio = 0
**.cnot_gate_yx_error_ratio = 0
**.cnot_gate_yy_error_ratio = 0
**.cnot_gate_yz_error_ratio = 0
**.cnot_gate_zi_error_ratio = 0
**.cnot_gate_zx_error_ratio = 0
**.cnot_gate_zy_error_ratio = 0
**.cnot_gate_zz_error_ratio = 0

# memory error parameters
**.memory_x_error_rate = 0
**.memory_y_error_rate = 0
**.memory_z_error_rate = 0
**.memory_energy_excitation_rate = 0
**.memory_energy_relaxation_rate = 0
**.memory_completely_mixed_rate = 0

# measurement error parameters
**.x_measurement_error_rate = 0
**.z_measurement_error_rate = 0
**.y_measurement_error_rate = 0

# simulation parameters
**.app.number_of_bellpair = 50000
**.buffers = 1
**.qrsa.hm.num_measure = 50000



[Config swapping_validation_cnot_0_meas_0_with_inf_coherence_time_for_100000_pairs]
network = networks.cross_validation_swapping
**.cnot_gate_error_rate = 0.0
*.Repeater.**.x_measurement_error_rate = 0
*.Repeater.**.y_measurement_error_rate = 0
*.Repeater.**.z_measurement_error_rate = 0
**.memory_x_error_rate = 0
**.memory_y_error_rate = 0
**.memory_z_error_rate = 0
repeat = 30
seed-set =  ${repetition}
**.photon_detection_per_second = 1000000000 # 1GHz
**.qrsa.hm.link_tomography = false
**.qrsa.hm.initial_purification = 0
**.qrsa.hm.purification_type = ""
*.alice.is_initiator = true
**.buffers = 1
**.app.number_of_bellpair = 100000
**.qrsa.hm.num_measure = 10


[Config swapping_validation_cnot_023438_meas_0_with_inf_coherence_time_for_100000_pairs]
network = networks.cross_validation_swapping
**.cnot_gate_error_rate = 0.023438
*.Repeater.**.x_measurement_error_rate = 0
*.Repeater.**.y_measurement_error_rate = 0
*.Repeater.**.z_measurement_error_rate = 0
**.memory_x_error_rate = 0
**.memory_y_error_rate = 0
**.memory_z_error_rate = 0
repeat = 30
seed-set =  ${repetition}
**.photon_detection_per_second = 1000000000 # 1GHz
**.qrsa.hm.link_tomography = false
**.qrsa.hm.initial_purification = 0
**.qrsa.hm.purification_type = ""
*.alice.is_initiator = true
**.buffers = 1
**.app.number_of_bellpair = 100000
**.qrsa.hm.num_measure = 10


[Config swapping_validation_cnot_046875_meas_0_with_inf_coherence_time_for_100000_pairs]
network = networks.cross_validation_swapping
**.cnot_gate_error_rate = 0.046875
*.Repeater.**.x_measurement_error_rate = 0
*.Repeater.**.y_measurement_error_rate = 0
*.Repeater.**.z_measurement_error_rate = 0
**.memory_x_error_rate = 0
**.memory_y_error_rate = 0
**.memory_z_error_rate = 0
repeat = 30
seed-set =  ${repetition}
**.photon_detection_per_second = 1000000000 # 1GHz
**.qrsa.hm.link_tomography = false
**.qrsa.hm.initial_purification = 0
**.qrsa.hm.purification_type = ""
*.alice.is_initiator = true
**.buffers = 1
**.app.number_of_bellpair = 100000
**.qrsa.hm.num_measure = 10


[Config swapping_validation_cnot_070313_meas_0_with_inf_coherence_time_for_100000_pairs]
network = networks.cross_validation_swapping
**.cnot_gate_error_rate = 0.070313
*.Repeater.**.x_measurement_error_rate = 0
*.Repeater.**.y_measurement_error_rate = 0
*.Repeater.**.z_measurement_error_rate = 0
**.memory_x_error_rate = 0
**.memory_y_error_rate = 0
**.memory_z_error_rate = 0
repeat = 30
seed-set =  ${repetition}
**.photon_detection_per_second = 1000000000 # 1GHz
**.qrsa.hm.link_tomography = false
**.qrsa.hm.initial_purification = 0
**.qrsa.hm.purification_type = ""
*.alice.is_initiator = true
**.buffers = 1
**.app.number_of_bellpair = 100000
**.qrsa.hm.num_measure = 10


[Config swapping_validation_cnot_09375_meas_0_with_inf_coherence_time_for_100000_pairs]
network = networks.cross_validation_swapping
**.cnot_gate_error_rate = 0.09375
*.Repeater.**.x_measurement_error_rate = 0
*.Repeater.**.y_measurement_error_rate = 0
*.Repeater.**.z_measurement_error_rate = 0
**.memory_x_error_rate = 0
**.memory_y_error_rate = 0
**.memory_z_error_rate = 0
repeat = 30
seed-set =  ${repetition}
**.photon_detection_per_second = 1000000000 # 1GHz
**.qrsa.hm.link_tomography = false
**.qrsa.hm.initial_purification = 0
**.qrsa.hm.purification_type = ""
*.alice.is_initiator = true
**.buffers = 1
**.app.number_of_bellpair = 100000
**.qrsa.hm.num_measure = 10


[Config swapping_validation_cnot_117188_meas_0_with_inf_coherence_time_for_100000_pairs]
network = networks.cross_validation_swapping
**.cnot_gate_error_rate = 0.117188
*.Repeater.**.x_measurement_error_rate = 0
*.Repeater.**.y_measurement_error_rate = 0
*.Repeater.**.z_measurement_error_rate = 0
**.memory_x_error_rate = 0
**.memory_y_error_rate = 0
**.memory_z_error_rate = 0
repeat = 30
seed-set =  ${repetition}
**.photon_detection_per_second = 1000000000 # 1GHz
**.qrsa.hm.link_tomography = false
**.qrsa.hm.initial_purification = 0
**.qrsa.hm.purification_type = ""
*.alice.is_initiator = true
**.buffers = 1
**.app.number_of_bellpair = 100000
**.qrsa.hm.num_measure = 10


[Config swapping_validation_cnot_140625_meas_0_with_inf_coherence_time_for_100000_pairs]
network = networks.cross_validation_swapping
**.cnot_gate_error_rate = 0.140625
*.Repeater.**.x_measurement_error_rate = 0
*.Repeater.**.y_measurement_error_rate = 0
*.Repeater.**.z_measurement_error_rate = 0
**.memory_x_error_rate = 0
**.memory_y_error_rate = 0
**.memory_z_error_rate = 0
repeat = 30
seed-set =  ${repetition}
**.photon_detection_per_second = 1000000000 # 1GHz
**.qrsa.hm.link_tomography = false
**.qrsa.hm.initial_purification = 0
**.qrsa.hm.purification_type = ""
*.alice.is_initiator = true
**.buffers = 1
**.app.number_of_bellpair = 100000
**.qrsa.hm.num_measure = 10


[Config swapping_validation_cnot_164063_meas_0_with_inf_coherence_time_for_100000_pairs]
network = networks.cross_validation_swapping
**.cnot_gate_error_rate = 0.164063
*.Repeater.**.x_measurement_error_rate = 0
*.Repeater.**.y_measurement_error_rate = 0
*.Repeater.**.z_measurement_error_rate = 0
**.memory_x_error_rate = 0
**.memory_y_error_rate = 0
**.memory_z_error_rate = 0
repeat = 30
seed-set =  ${repetition}
**.photon_detection_per_second = 1000000000 # 1GHz
**.qrsa.hm.link_tomography = false
**.qrsa.hm.initial_purification = 0
**.qrsa.hm.purification_type = ""
*.alice.is_initiator = true
**.buffers = 1
**.app.number_of_bellpair = 100000
**.qrsa.hm.num_measure = 10


[Config swapping_validation_cnot_1875_meas_0_with_inf_coherence_time_for_100000_pairs]
network = networks.cross_validation_swapping
**.cnot_gate_error_rate = 0.1875
*.Repeater.**.x_measurement_error_rate = 0
*.Repeater.**.y_measurement_error_rate = 0
*.Repeater.**.z_measurement_error_rate = 0
**.memory_x_error_rate = 0
**.memory_y_error_rate = 0
**.memory_z_error_rate = 0
repeat = 30
seed-set =  ${repetition}
**.photon_detection_per_second = 1000000000 # 1GHz
**.qrsa.hm.link_tomography = false
**.qrsa.hm.initial_purification = 0
**.qrsa.hm.purification_type = ""
*.alice.is_initiator = true
**.buffers = 1
**.app.number_of_bellpair = 100000
**.qrsa.hm.num_measure = 10


[Config swapping_validation_cnot_210938_meas_0_with_inf_coherence_time_for_100000_pairs]
network = networks.cross_validation_swapping
**.cnot_gate_error_rate = 0.210938
*.Repeater.**.x_measurement_error_rate = 0
*.Repeater.**.y_measurement_error_rate = 0
*.Repeater.**.z_measurement_error_rate = 0
**.memory_x_error_rate = 0
**.memory_y_error_rate = 0
**.memory_z_error_rate = 0
repeat = 30
seed-set =  ${repetition}
**.photon_detection_per_second = 1000000000 # 1GHz
**.qrsa.hm.link_tomography = false
**.qrsa.hm.initial_purification = 0
**.qrsa.hm.purification_type = ""
*.alice.is_initiator = true
**.buffers = 1
**.app.number_of_bellpair = 100000
**.qrsa.hm.num_measure = 10


[Config swapping_validation_cnot_234375_meas_0_with_inf_coherence_time_for_100000_pairs]
network = networks.cross_validation_swapping
**.cnot_gate_error_rate = 0.234375
*.Repeater.**.x_measurement_error_rate = 0
*.Repeater.**.y_measurement_error_rate = 0
*.Repeater.**.z_measurement_error_rate = 0
**.memory_x_error_rate = 0
**.memory_y_error_rate = 0
**.memory_z_error_rate = 0
repeat = 30
seed-set =  ${repetition}
**.photon_detection_per_second = 1000000000 # 1GHz
**.qrsa.hm.link_tomography = false
**.qrsa.hm.initial_purification = 0
**.qrsa.hm.purification_type = ""
*.alice.is_initiator = true
**.buffers = 1
**.app.number_of_bellpair = 100000
**.qrsa.hm.num_measure = 10


[Config swapping_validation_cnot_257812_meas_0_with_inf_coherence_time_for_100000_pairs]
network = networks.cross_validation_swapping
**.cnot_gate_error_rate = 0.257812
*.Repeater.**.x_measurement_error_rate = 0
*.Repeater.**.y_measurement_error_rate = 0
*.Repeater.**.z_measurement_error_rate = 0
**.memory_x_error_rate = 0
**.memory_y_error_rate = 0
**.memory_z_error_rate = 0
repeat = 30
seed-set =  ${repetition}
**.photon_detection_per_second = 1000000000 # 1GHz
**.qrsa.hm.link_tomography = false
**.qrsa.hm.initial_purification = 0
**.qrsa.hm.purification_type = ""
*.alice.is_initiator = true
**.buffers = 1
**.app.number_of_bellpair = 100000
**.qrsa.hm.num_measure = 10


[Config swapping_validation_cnot_28125_meas_0_with_inf_coherence_time_for_100000_pairs]
network = networks.cross_validation_swapping
**.cnot_gate_error_rate = 0.28125
*.Repeater.**.x_measurement_error_rate = 0
*.Repeater.**.y_measurement_error_rate = 0
*.Repeater.**.z_measurement_error_rate = 0
**.memory_x_error_rate = 0
**.memory_y_error_rate = 0
**.memory_z_error_rate = 0
repeat = 30
seed-set =  ${repetition}
**.photon_detection_per_second = 1000000000 # 1GHz
**.qrsa.hm.link_tomography = false
**.qrsa.hm.initial_purification = 0
**.qrsa.hm.purification_type = ""
*.alice.is_initiator = true
**.buffers = 1
**.app.number_of_bellpair = 100000
**.qrsa.hm.num_measure = 10


[Config swapping_validation_cnot_304688_meas_0_with_inf_coherence_time_for_100000_pairs]
network = networks.cross_validation_swapping
**.cnot_gate_error_rate = 0.304688
*.Repeater.**.x_measurement_error_rate = 0
*.Repeater.**.y_measurement_error_rate = 0
*.Repeater.**.z_measurement_error_rate = 0
**.memory_x_error_rate = 0
**.memory_y_error_rate = 0
**.memory_z_error_rate = 0
repeat = 30
seed-set =  ${repetition}
**.photon_detection_per_second = 1000000000 # 1GHz
**.qrsa.hm.link_tomography = false
**.qrsa.hm.initial_purification = 0
**.qrsa.hm.purification_type = ""
*.alice.is_initiator = true
**.buffers = 1
**.app.number_of_bellpair = 100000
**.qrsa.hm.num_measure = 10


[Config swapping_validation_cnot_328125_meas_0_with_inf_coherence_time_for_100000_pairs]
network = networks.cross_validation_swapping
**.cnot_gate_error_rate = 0.328125
*.Repeater.**.x_measurement_error_rate = 0
*.Repeater.**.y_measurement_error_rate = 0
*.Repeater.**.z_measurement_error_rate = 0
**.memory_x_error_rate = 0
**.memory_y_error_rate = 0
**.memory_z_error_rate = 0
repeat = 30
seed-set =  ${repetition}
**.photon_detection_per_second = 1000000000 # 1GHz
**.qrsa.hm.link_tomography = false
**.qrsa.hm.initial_purification = 0
**.qrsa.hm.purification_type = ""
*.alice.is_initiator = true
**.buffers = 1
**.app.number_of_bellpair = 100000
**.qrsa.hm.num_measure = 10


[Config swapping_validation_cnot_351562_meas_0_with_inf_coherence_time_for_100000_pairs]
network = networks.cross_validation_swapping
**.cnot_gate_error_rate = 0.351562
*.Repeater.**.x_measurement_error_rate = 0
*.Repeater.**.y_measurement_error_rate = 0
*.Repeater.**.z_measurement_error_rate = 0
**.memory_x_error_rate = 0
**.memory_y_error_rate = 0
**.memory_z_error_rate = 0
repeat = 30
seed-set =  ${repetition}
**.photon_detection_per_second = 1000000000 # 1GHz
**.qrsa.hm.link_tomography = false
**.qrsa.hm.initial_purification = 0
**.qrsa.hm.purification_type = ""
*.alice.is_initiator = true
**.buffers = 1
**.app.number_of_bellpair = 100000
**.qrsa.hm.num_measure = 10


[Config swapping_validation_cnot_375_meas_0_with_inf_coherence_time_for_100000_pairs]
network = networks.cross_validation_swapping
**.cnot_gate_error_rate = 0.375
*.Repeater.**.x_measurement_error_rate = 0
*.Repeater.**.y_measurement_error_rate = 0
*.Repeater.**.z_measurement_error_rate = 0
**.memory_x_error_rate = 0
**.memory_y_error_rate = 0
**.memory_z_error_rate = 0
repeat = 30
seed-set =  ${repetition}
**.photon_detection_per_second = 1000000000 # 1GHz
**.qrsa.hm.link_tomography = false
**.qrsa.hm.initial_purification = 0
**.qrsa.hm.purification_type = ""
*.alice.is_initiator = true
**.buffers = 1
**.app.number_of_bellpair = 100000
**.qrsa.hm.num_measure = 10


[Config swapping_validation_cnot_398438_meas_0_with_inf_coherence_time_for_100000_pairs]
network = networks.cross_validation_swapping
**.cnot_gate_error_rate = 0.398438
*.Repeater.**.x_measurement_error_rate = 0
*.Repeater.**.y_measurement_error_rate = 0
*.Repeater.**.z_measurement_error_rate = 0
**.memory_x_error_rate = 0
**.memory_y_error_rate = 0
**.memory_z_error_rate = 0
repeat = 30
seed-set =  ${repetition}
**.photon_detection_per_second = 1000000000 # 1GHz
**.qrsa.hm.link_tomography = false
**.qrsa.hm.initial_purification = 0
**.qrsa.hm.purification_type = ""
*.alice.is_initiator = true
**.buffers = 1
**.app.number_of_bellpair = 100000
**.qrsa.hm.num_measure = 10


[Config swapping_validation_cnot_421875_meas_0_with_inf_coherence_time_for_100000_pairs]
network = networks.cross_validation_swapping
**.cnot_gate_error_rate = 0.421875
*.Repeater.**.x_measurement_error_rate = 0
*.Repeater.**.y_measurement_error_rate = 0
*.Repeater.**.z_measurement_error_rate = 0
**.memory_x_error_rate = 0
**.memory_y_error_rate = 0
**.memory_z_error_rate = 0
repeat = 30
seed-set =  ${repetition}
**.photon_detection_per_second = 1000000000 # 1GHz
**.qrsa.hm.link_tomography = false
**.qrsa.hm.initial_purification = 0
**.qrsa.hm.purification_type = ""
*.alice.is_initiator = true
**.buffers = 1
**.app.number_of_bellpair = 100000
**.qrsa.hm.num_measure = 10


[Config swapping_validation_cnot_445313_meas_0_with_inf_coherence_time_for_100000_pairs]
network = networks.cross_validation_swapping
**.cnot_gate_error_rate = 0.445313
*.Repeater.**.x_measurement_error_rate = 0
*.Repeater.**.y_measurement_error_rate = 0
*.Repeater.**.z_measurement_error_rate = 0
**.memory_x_error_rate = 0
**.memory_y_error_rate = 0
**.memory_z_error_rate = 0
repeat = 30
seed-set =  ${repetition}
**.photon_detection_per_second = 1000000000 # 1GHz
**.qrsa.hm.link_tomography = false
**.qrsa.hm.initial_purification = 0
**.qrsa.hm.purification_type = ""
*.alice.is_initiator = true
**.buffers = 1
**.app.number_of_bellpair = 100000
**.qrsa.hm.num_measure = 10


[Config swapping_validation_cnot_46875_meas_0_with_inf_coherence_time_for_100000_pairs]
network = networks.cross_validation_swapping
**.cnot_gate_error_rate = 0.46875
*.Repeater.**.x_measurement_error_rate = 0
*.Repeater.**.y_measurement_error_rate = 0
*.Repeater.**.z_measurement_error_rate = 0
**.memory_x_error_rate = 0
**.memory_y_error_rate = 0
**.memory_z_error_rate = 0
repeat = 30
seed-set =  ${repetition}
**.photon_detection_per_second = 1000000000 # 1GHz
**.qrsa.hm.link_tomography = false
**.qrsa.hm.initial_purification = 0
**.qrsa.hm.purification_type = ""
*.alice.is_initiator = true
**.buffers = 1
**.app.number_of_bellpair = 100000
**.qrsa.hm.num_measure = 10


[Config swapping_validation_cnot_492188_meas_0_with_inf_coherence_time_for_100000_pairs]
network = networks.cross_validation_swapping
**.cnot_gate_error_rate = 0.492188
*.Repeater.**.x_measurement_error_rate = 0
*.Repeater.**.y_measurement_error_rate = 0
*.Repeater.**.z_measurement_error_rate = 0
**.memory_x_error_rate = 0
**.memory_y_error_rate = 0
**.memory_z_error_rate = 0
repeat = 30
seed-set =  ${repetition}
**.photon_detection_per_second = 1000000000 # 1GHz
**.qrsa.hm.link_tomography = false
**.qrsa.hm.initial_purification = 0
**.qrsa.hm.purification_type = ""
*.alice.is_initiator = true
**.buffers = 1
**.app.number_of_bellpair = 100000
**.qrsa.hm.num_measure = 10


[Config swapping_validation_cnot_515625_meas_0_with_inf_coherence_time_for_100000_pairs]
network = networks.cross_validation_swapping
**.cnot_gate_error_rate = 0.515625
*.Repeater.**.x_measurement_error_rate = 0
*.Repeater.**.y_measurement_error_rate = 0
*.Repeater.**.z_measurement_error_rate = 0
**.memory_x_error_rate = 0
**.memory_y_error_rate = 0
**.memory_z_error_rate = 0
repeat = 30
seed-set =  ${repetition}
**.photon_detection_per_second = 1000000000 # 1GHz
**.qrsa.hm.link_tomography = false
**.qrsa.hm.initial_purification = 0
**.qrsa.hm.purification_type = ""
*.alice.is_initiator = true
**.buffers = 1
**.app.number_of_bellpair = 100000
**.qrsa.hm.num_measure = 10


[Config swapping_validation_cnot_539063_meas_0_with_inf_coherence_time_for_100000_pairs]
network = networks.cross_validation_swapping
**.cnot_gate_error_rate = 0.539063
*.Repeater.**.x_measurement_error_rate = 0
*.Repeater.**.y_measurement_error_rate = 0
*.Repeater.**.z_measurement_error_rate = 0
**.memory_x_error_rate = 0
**.memory_y_error_rate = 0
**.memory_z_error_rate = 0
repeat = 30
seed-set =  ${repetition}
**.photon_detection_per_second = 1000000000 # 1GHz
**.qrsa.hm.link_tomography = false
**.qrsa.hm.initial_purification = 0
**.qrsa.hm.purification_type = ""
*.alice.is_initiator = true
**.buffers = 1
**.app.number_of_bellpair = 100000
**.qrsa.hm.num_measure = 10


[Config swapping_validation_cnot_5625_meas_0_with_inf_coherence_time_for_100000_pairs]
network = networks.cross_validation_swapping
**.cnot_gate_error_rate = 0.5625
*.Repeater.**.x_measurement_error_rate = 0
*.Repeater.**.y_measurement_error_rate = 0
*.Repeater.**.z_measurement_error_rate = 0
**.memory_x_error_rate = 0
**.memory_y_error_rate = 0
**.memory_z_error_rate = 0
repeat = 30
seed-set =  ${repetition}
**.photon_detection_per_second = 1000000000 # 1GHz
**.qrsa.hm.link_tomography = false
**.qrsa.hm.initial_purification = 0
**.qrsa.hm.purification_type = ""
*.alice.is_initiator = true
**.buffers = 1
**.app.number_of_bellpair = 100000
**.qrsa.hm.num_measure = 10


[Config swapping_validation_cnot_585938_meas_0_with_inf_coherence_time_for_100000_pairs]
network = networks.cross_validation_swapping
**.cnot_gate_error_rate = 0.585938
*.Repeater.**.x_measurement_error_rate = 0
*.Repeater.**.y_measurement_error_rate = 0
*.Repeater.**.z_measurement_error_rate = 0
**.memory_x_error_rate = 0
**.memory_y_error_rate = 0
**.memory_z_error_rate = 0
repeat = 30
seed-set =  ${repetition}
**.photon_detection_per_second = 1000000000 # 1GHz
**.qrsa.hm.link_tomography = false
**.qrsa.hm.initial_purification = 0
**.qrsa.hm.purification_type = ""
*.alice.is_initiator = true
**.buffers = 1
**.app.number_of_bellpair = 100000
**.qrsa.hm.num_measure = 10


[Config swapping_validation_cnot_609375_meas_0_with_inf_coherence_time_for_100000_pairs]
network = networks.cross_validation_swapping
**.cnot_gate_error_rate = 0.609375
*.Repeater.**.x_measurement_error_rate = 0
*.Repeater.**.y_measurement_error_rate = 0
*.Repeater.**.z_measurement_error_rate = 0
**.memory_x_error_rate = 0
**.memory_y_error_rate = 0
**.memory_z_error_rate = 0
repeat = 30
seed-set =  ${repetition}
**.photon_detection_per_second = 1000000000 # 1GHz
**.qrsa.hm.link_tomography = false
**.qrsa.hm.initial_purification = 0
**.qrsa.hm.purification_type = ""
*.alice.is_initiator = true
**.buffers = 1
**.app.number_of_bellpair = 100000
**.qrsa.hm.num_measure = 10


[Config swapping_validation_cnot_632812_meas_0_with_inf_coherence_time_for_100000_pairs]
network = networks.cross_validation_swapping
**.cnot_gate_error_rate = 0.632812
*.Repeater.**.x_measurement_error_rate = 0
*.Repeater.**.y_measurement_error_rate = 0
*.Repeater.**.z_measurement_error_rate = 0
**.memory_x_error_rate = 0
**.memory_y_error_rate = 0
**.memory_z_error_rate = 0
repeat = 30
seed-set =  ${repetition}
**.photon_detection_per_second = 1000000000 # 1GHz
**.qrsa.hm.link_tomography = false
**.qrsa.hm.initial_purification = 0
**.qrsa.hm.purification_type = ""
*.alice.is_initiator = true
**.buffers = 1
**.app.number_of_bellpair = 100000
**.qrsa.hm.num_measure = 10


[Config swapping_validation_cnot_65625_meas_0_with_inf_coherence_time_for_100000_pairs]
network = networks.cross_validation_swapping
**.cnot_gate_error_rate = 0.65625
*.Repeater.**.x_measurement_error_rate = 0
*.Repeater.**.y_measurement_error_rate = 0
*.Repeater.**.z_measurement_error_rate = 0
**.memory_x_error_rate = 0
**.memory_y_error_rate = 0
**.memory_z_error_rate = 0
repeat = 30
seed-set =  ${repetition}
**.photon_detection_per_second = 1000000000 # 1GHz
**.qrsa.hm.link_tomography = false
**.qrsa.hm.initial_purification = 0
**.qrsa.hm.purification_type = ""
*.alice.is_initiator = true
**.buffers = 1
**.app.number_of_bellpair = 100000
**.qrsa.hm.num_measure = 10


[Config swapping_validation_cnot_679688_meas_0_with_inf_coherence_time_for_100000_pairs]
network = networks.cross_validation_swapping
**.cnot_gate_error_rate = 0.679688
*.Repeater.**.x_measurement_error_rate = 0
*.Repeater.**.y_measurement_error_rate = 0
*.Repeater.**.z_measurement_error_rate = 0
**.memory_x_error_rate = 0
**.memory_y_error_rate = 0
**.memory_z_error_rate = 0
repeat = 30
seed-set =  ${repetition}
**.photon_detection_per_second = 1000000000 # 1GHz
**.qrsa.hm.link_tomography = false
**.qrsa.hm.initial_purification = 0
**.qrsa.hm.purification_type = ""
*.alice.is_initiator = true
**.buffers = 1
**.app.number_of_bellpair = 100000
**.qrsa.hm.num_measure = 10


[Config swapping_validation_cnot_703125_meas_0_with_inf_coherence_time_for_100000_pairs]
network = networks.cross_validation_swapping
**.cnot_gate_error_rate = 0.703125
*.Repeater.**.x_measurement_error_rate = 0
*.Repeater.**.y_measurement_error_rate = 0
*.Repeater.**.z_measurement_error_rate = 0
**.memory_x_error_rate = 0
**.memory_y_error_rate = 0
**.memory_z_error_rate = 0
repeat = 30
seed-set =  ${repetition}
**.photon_detection_per_second = 1000000000 # 1GHz
**.qrsa.hm.link_tomography = false
**.qrsa.hm.initial_purification = 0
**.qrsa.hm.purification_type = ""
*.alice.is_initiator = true
**.buffers = 1
**.app.number_of_bellpair = 100000
**.qrsa.hm.num_measure = 10


[Config swapping_validation_cnot_726562_meas_0_with_inf_coherence_time_for_100000_pairs]
network = networks.cross_validation_swapping
**.cnot_gate_error_rate = 0.726562
*.Repeater.**.x_measurement_error_rate = 0
*.Repeater.**.y_measurement_error_rate = 0
*.Repeater.**.z_measurement_error_rate = 0
**.memory_x_error_rate = 0
**.memory_y_error_rate = 0
**.memory_z_error_rate = 0
repeat = 30
seed-set =  ${repetition}
**.photon_detection_per_second = 1000000000 # 1GHz
**.qrsa.hm.link_tomography = false
**.qrsa.hm.initial_purification = 0
**.qrsa.hm.purification_type = ""
*.alice.is_initiator = true
**.buffers = 1
**.app.number_of_bellpair = 100000
**.qrsa.hm.num_measure = 10


[Config swapping_validation_cnot_75_meas_0_with_inf_coherence_time_for_100000_pairs]
network = networks.cross_validation_swapping
**.cnot_gate_error_rate = 0.75
*.Repeater.**.x_measurement_error_rate = 0
*.Repeater.**.y_measurement_error_rate = 0
*.Repeater.**.z_measurement_error_rate = 0
**.memory_x_error_rate = 0
**.memory_y_error_rate = 0
**.memory_z_error_rate = 0
repeat = 30
seed-set =  ${repetition}
**.photon_detection_per_second = 1000000000 # 1GHz
**.qrsa.hm.link_tomography = false
**.qrsa.hm.initial_purification = 0
**.qrsa.hm.purification_type = ""
*.alice.is_initiator = true
**.buffers = 1
**.app.number_of_bellpair = 100000
**.qrsa.hm.num_measure = 10


[Config swapping_validation_cnot_773438_meas_0_with_inf_coherence_time_for_100000_pairs]
network = networks.cross_validation_swapping
**.cnot_gate_error_rate = 0.773438
*.Repeater.**.x_measurement_error_rate = 0
*.Repeater.**.y_measurement_error_rate = 0
*.Repeater.**.z_measurement_error_rate = 0
**.memory_x_error_rate = 0
**.memory_y_error_rate = 0
**.memory_z_error_rate = 0
repeat = 30
seed-set =  ${repetition}
**.photon_detection_per_second = 1000000000 # 1GHz
**.qrsa.hm.link_tomography = false
**.qrsa.hm.initial_purification = 0
**.qrsa.hm.purification_type = ""
*.alice.is_initiator = true
**.buffers = 1
**.app.number_of_bellpair = 100000
**.qrsa.hm.num_measure = 10


[Config swapping_validation_cnot_796875_meas_0_with_inf_coherence_time_for_100000_pairs]
network = networks.cross_validation_swapping
**.cnot_gate_error_rate = 0.796875
*.Repeater.**.x_measurement_error_rate = 0
*.Repeater.**.y_measurement_error_rate = 0
*.Repeater.**.z_measurement_error_rate = 0
**.memory_x_error_rate = 0
**.memory_y_error_rate = 0
**.memory_z_error_rate = 0
repeat = 30
seed-set =  ${repetition}
**.photon_detection_per_second = 1000000000 # 1GHz
**.qrsa.hm.link_tomography = false
**.qrsa.hm.initial_purification = 0
**.qrsa.hm.purification_type = ""
*.alice.is_initiator = true
**.buffers = 1
**.app.number_of_bellpair = 100000
**.qrsa.hm.num_measure = 10


[Config swapping_validation_cnot_820312_meas_0_with_inf_coherence_time_for_100000_pairs]
network = networks.cross_validation_swapping
**.cnot_gate_error_rate = 0.820312
*.Repeater.**.x_measurement_error_rate = 0
*.Repeater.**.y_measurement_error_rate = 0
*.Repeater.**.z_measurement_error_rate = 0
**.memory_x_error_rate = 0
**.memory_y_error_rate = 0
**.memory_z_error_rate = 0
repeat = 30
seed-set =  ${repetition}
**.photon_detection_per_second = 1000000000 # 1GHz
**.qrsa.hm.link_tomography = false
**.qrsa.hm.initial_purification = 0
**.qrsa.hm.purification_type = ""
*.alice.is_initiator = true
**.buffers = 1
**.app.number_of_bellpair = 100000
**.qrsa.hm.num_measure = 10


[Config swapping_validation_cnot_84375_meas_0_with_inf_coherence_time_for_100000_pairs]
network = networks.cross_validation_swapping
**.cnot_gate_error_rate = 0.84375
*.Repeater.**.x_measurement_error_rate = 0
*.Repeater.**.y_measurement_error_rate = 0
*.Repeater.**.z_measurement_error_rate = 0
**.memory_x_error_rate = 0
**.memory_y_error_rate = 0
**.memory_z_error_rate = 0
repeat = 30
seed-set =  ${repetition}
**.photon_detection_per_second = 1000000000 # 1GHz
**.qrsa.hm.link_tomography = false
**.qrsa.hm.initial_purification = 0
**.qrsa.hm.purification_type = ""
*.alice.is_initiator = true
**.buffers = 1
**.app.number_of_bellpair = 100000
**.qrsa.hm.num_measure = 10


[Config swapping_validation_cnot_867188_meas_0_with_inf_coherence_time_for_100000_pairs]
network = networks.cross_validation_swapping
**.cnot_gate_error_rate = 0.867188
*.Repeater.**.x_measurement_error_rate = 0
*.Repeater.**.y_measurement_error_rate = 0
*.Repeater.**.z_measurement_error_rate = 0
**.memory_x_error_rate = 0
**.memory_y_error_rate = 0
**.memory_z_error_rate = 0
repeat = 30
seed-set =  ${repetition}
**.photon_detection_per_second = 1000000000 # 1GHz
**.qrsa.hm.link_tomography = false
**.qrsa.hm.initial_purification = 0
**.qrsa.hm.purification_type = ""
*.alice.is_initiator = true
**.buffers = 1
**.app.number_of_bellpair = 100000
**.qrsa.hm.num_measure = 10


[Config swapping_validation_cnot_890625_meas_0_with_inf_coherence_time_for_100000_pairs]
network = networks.cross_validation_swapping
**.cnot_gate_error_rate = 0.890625
*.Repeater.**.x_measurement_error_rate = 0
*.Repeater.**.y_measurement_error_rate = 0
*.Repeater.**.z_measurement_error_rate = 0
**.memory_x_error_rate = 0
**.memory_y_error_rate = 0
**.memory_z_error_rate = 0
repeat = 30
seed-set =  ${repetition}
**.photon_detection_per_second = 1000000000 # 1GHz
**.qrsa.hm.link_tomography = false
**.qrsa.hm.initial_purification = 0
**.qrsa.hm.purification_type = ""
*.alice.is_initiator = true
**.buffers = 1
**.app.number_of_bellpair = 100000
**.qrsa.hm.num_measure = 10


[Config swapping_validation_cnot_914063_meas_0_with_inf_coherence_time_for_100000_pairs]
network = networks.cross_validation_swapping
**.cnot_gate_error_rate = 0.914063
*.Repeater.**.x_measurement_error_rate = 0
*.Repeater.**.y_measurement_error_rate = 0
*.Repeater.**.z_measurement_error_rate = 0
**.memory_x_error_rate = 0
**.memory_y_error_rate = 0
**.memory_z_error_rate = 0
repeat = 30
seed-set =  ${repetition}
**.photon_detection_per_second = 1000000000 # 1GHz
**.qrsa.hm.link_tomography = false
**.qrsa.hm.initial_purification = 0
**.qrsa.hm.purification_type = ""
*.alice.is_initiator = true
**.buffers = 1
**.app.number_of_bellpair = 100000
**.qrsa.hm.num_measure = 10


[Config swapping_validation_cnot_9375_meas_0_with_inf_coherence_time_for_100000_pairs]
network = networks.cross_validation_swapping
**.cnot_gate_error_rate = 0.9375
*.Repeater.**.x_measurement_error_rate = 0
*.Repeater.**.y_measurement_error_rate = 0
*.Repeater.**.z_measurement_error_rate = 0
**.memory_x_error_rate = 0
**.memory_y_error_rate = 0
**.memory_z_error_rate = 0
repeat = 30
seed-set =  ${repetition}
**.photon_detection_per_second = 1000000000 # 1GHz
**.qrsa.hm.link_tomography = false
**.qrsa.hm.initial_purification = 0
**.qrsa.hm.purification_type = ""
*.alice.is_initiator = true
**.buffers = 1
**.app.number_of_bellpair = 100000
**.qrsa.hm.num_measure = 10

