[General]
repeat = 1
seed-set =  ${repetition}
sim-time-limit = 250s
**.initial_notification_timing_buffer = 10s # when to start the BSA timing notification.
**.app.request_generation_interval = 2s
**.logger.enabled_log = false
**.logger.log_filename = "networks/${resultdir}/${configname}-${runnumber}.jsonl"
**.tomography_output_filename = "${resultdir}/${configname}.output"
**.statistic-recording = false
**.scalar-recording = false
**.vector-recording = false
**.speed_of_light_in_fiber = 208189.206944km

**.channel_loss_rate = 0.04500741397 # per km. 1 - 10^(-0.2/10)
**.channel_x_error_rate = 0
**.channel_z_error_rate = 0
**.channel_y_error_rate = 0

**.collection_efficiency = 1
**.darkcount_probability = 0
**.detection_efficiency = 1
**.indistinguishable_time_window = 1.5ns
**.photon_detection_per_second = 1000000 # 1MHz

**.x_gate_error_rate = 0
**.x_gate_x_error_ratio = 0
**.x_gate_y_error_ratio = 0
**.x_gate_z_error_ratio = 0

**.z_gate_error_rate = 0
**.z_gate_x_error_ratio = 0
**.z_gate_y_error_ratio = 0
**.z_gate_z_error_ratio = 0

# CNOT error parameters
**.cnot_gate_error_rate = 0
**.cnot_gate_ix_error_ratio = 0
**.cnot_gate_iy_error_ratio = 0
**.cnot_gate_iz_error_ratio = 0
**.cnot_gate_xi_error_ratio = 0
**.cnot_gate_xx_error_ratio = 0
**.cnot_gate_xy_error_ratio = 0
**.cnot_gate_xz_error_ratio = 0
**.cnot_gate_yi_error_ratio = 0
**.cnot_gate_yx_error_ratio = 0
**.cnot_gate_yy_error_ratio = 0
**.cnot_gate_yz_error_ratio = 0
**.cnot_gate_zi_error_ratio = 0
**.cnot_gate_zx_error_ratio = 0
**.cnot_gate_zy_error_ratio = 0
**.cnot_gate_zz_error_ratio = 0

# memory error parameters
**.memory_x_error_rate = 0
**.memory_y_error_rate = 0
**.memory_z_error_rate = 0
**.memory_energy_excitation_rate = 0
**.memory_energy_relaxation_rate = 0
**.memory_completely_mixed_rate = 0

# measurement error parameters
**.x_measurement_error_rate = 0
**.z_measurement_error_rate = 0
**.y_measurement_error_rate = 0

# simulation parameters
**.app.number_of_bellpair = 50000
**.buffers = 1
**.qrsa.hm.num_measure = 50000



[Config purification_validation_with_inf_coherence_for_10000_pairs_with_link_fidelity_6]
network = networks.cross_validation_purification
**.memory_x_error_rate = 0
**.memory_y_error_rate = 0
**.memory_z_error_rate = 0
**.channel_x_error_rate = 0.004505924979457633
**.channel_z_error_rate = 0.004505924979457633
**.channel_y_error_rate = 0.004505924979457633
repeat = 30
seed-set = ${repetition}
**.photon_detection_per_second = 1000000000 # 1GHz
sim-time-limit = 1000s
**.qrsa.hm.link_tomography = false
**.qrsa.hm.initial_purification = 0
**.qrsa.hm.purification_type = ""
*.alice.is_initiator = true
**.buffers = 2
**.app.number_of_bellpair = 10000
**.qrsa.hm.num_measure = 10000


[Config purification_validation_with_inf_coherence_for_10000_pairs_with_link_fidelity_62]
network = networks.cross_validation_purification
**.memory_x_error_rate = 0
**.memory_y_error_rate = 0
**.memory_z_error_rate = 0
**.channel_x_error_rate = 0.004180278696730965
**.channel_z_error_rate = 0.004180278696730965
**.channel_y_error_rate = 0.004180278696730965
repeat = 30
seed-set = ${repetition}
**.photon_detection_per_second = 1000000000 # 1GHz
sim-time-limit = 1000s
**.qrsa.hm.link_tomography = false
**.qrsa.hm.initial_purification = 0
**.qrsa.hm.purification_type = ""
*.alice.is_initiator = true
**.buffers = 2
**.app.number_of_bellpair = 10000
**.qrsa.hm.num_measure = 10000


[Config purification_validation_with_inf_coherence_for_10000_pairs_with_link_fidelity_64]
network = networks.cross_validation_purification
**.memory_x_error_rate = 0
**.memory_y_error_rate = 0
**.memory_z_error_rate = 0
**.channel_x_error_rate = 0.0038713622518116602
**.channel_z_error_rate = 0.0038713622518116602
**.channel_y_error_rate = 0.0038713622518116602
repeat = 30
seed-set = ${repetition}
**.photon_detection_per_second = 1000000000 # 1GHz
sim-time-limit = 1000s
**.qrsa.hm.link_tomography = false
**.qrsa.hm.initial_purification = 0
**.qrsa.hm.purification_type = ""
*.alice.is_initiator = true
**.buffers = 2
**.app.number_of_bellpair = 10000
**.qrsa.hm.num_measure = 10000


[Config purification_validation_with_inf_coherence_for_10000_pairs_with_link_fidelity_66]
network = networks.cross_validation_purification
**.memory_x_error_rate = 0
**.memory_y_error_rate = 0
**.memory_z_error_rate = 0
**.channel_x_error_rate = 0.003577521432453068
**.channel_z_error_rate = 0.003577521432453068
**.channel_y_error_rate = 0.003577521432453068
repeat = 30
seed-set = ${repetition}
**.photon_detection_per_second = 1000000000 # 1GHz
sim-time-limit = 1000s
**.qrsa.hm.link_tomography = false
**.qrsa.hm.initial_purification = 0
**.qrsa.hm.purification_type = ""
*.alice.is_initiator = true
**.buffers = 2
**.app.number_of_bellpair = 10000
**.qrsa.hm.num_measure = 10000


[Config purification_validation_with_inf_coherence_for_10000_pairs_with_link_fidelity_68]
network = networks.cross_validation_purification
**.memory_x_error_rate = 0
**.memory_y_error_rate = 0
**.memory_z_error_rate = 0
**.channel_x_error_rate = 0.0032973367044178306
**.channel_z_error_rate = 0.0032973367044178306
**.channel_y_error_rate = 0.0032973367044178306
repeat = 30
seed-set = ${repetition}
**.photon_detection_per_second = 1000000000 # 1GHz
sim-time-limit = 1000s
**.qrsa.hm.link_tomography = false
**.qrsa.hm.initial_purification = 0
**.qrsa.hm.purification_type = ""
*.alice.is_initiator = true
**.buffers = 2
**.app.number_of_bellpair = 10000
**.qrsa.hm.num_measure = 10000


[Config purification_validation_with_inf_coherence_for_10000_pairs_with_link_fidelity_7]
network = networks.cross_validation_purification
**.memory_x_error_rate = 0
**.memory_y_error_rate = 0
**.memory_z_error_rate = 0
**.channel_x_error_rate = 0.0030295807540824168
**.channel_z_error_rate = 0.0030295807540824168
**.channel_y_error_rate = 0.0030295807540824168
repeat = 30
seed-set = ${repetition}
**.photon_detection_per_second = 1000000000 # 1GHz
sim-time-limit = 1000s
**.qrsa.hm.link_tomography = false
**.qrsa.hm.initial_purification = 0
**.qrsa.hm.purification_type = ""
*.alice.is_initiator = true
**.buffers = 2
**.app.number_of_bellpair = 10000
**.qrsa.hm.num_measure = 10000


[Config purification_validation_with_inf_coherence_for_10000_pairs_with_link_fidelity_72]
network = networks.cross_validation_purification
**.memory_x_error_rate = 0
**.memory_y_error_rate = 0
**.memory_z_error_rate = 0
**.channel_x_error_rate = 0.0027731852074794013
**.channel_z_error_rate = 0.0027731852074794013
**.channel_y_error_rate = 0.0027731852074794013
repeat = 30
seed-set = ${repetition}
**.photon_detection_per_second = 1000000000 # 1GHz
sim-time-limit = 1000s
**.qrsa.hm.link_tomography = false
**.qrsa.hm.initial_purification = 0
**.qrsa.hm.purification_type = ""
*.alice.is_initiator = true
**.buffers = 2
**.app.number_of_bellpair = 10000
**.qrsa.hm.num_measure = 10000


[Config purification_validation_with_inf_coherence_for_10000_pairs_with_link_fidelity_74]
network = networks.cross_validation_purification
**.memory_x_error_rate = 0
**.memory_y_error_rate = 0
**.memory_z_error_rate = 0
**.channel_x_error_rate = 0.0025272142753237858
**.channel_z_error_rate = 0.0025272142753237858
**.channel_y_error_rate = 0.0025272142753237858
repeat = 30
seed-set = ${repetition}
**.photon_detection_per_second = 1000000000 # 1GHz
sim-time-limit = 1000s
**.qrsa.hm.link_tomography = false
**.qrsa.hm.initial_purification = 0
**.qrsa.hm.purification_type = ""
*.alice.is_initiator = true
**.buffers = 2
**.app.number_of_bellpair = 10000
**.qrsa.hm.num_measure = 10000


[Config purification_validation_with_inf_coherence_for_10000_pairs_with_link_fidelity_76]
network = networks.cross_validation_purification
**.memory_x_error_rate = 0
**.memory_y_error_rate = 0
**.memory_z_error_rate = 0
**.channel_x_error_rate = 0.0022908436607394834
**.channel_z_error_rate = 0.0022908436607394834
**.channel_y_error_rate = 0.0022908436607394834
repeat = 30
seed-set = ${repetition}
**.photon_detection_per_second = 1000000000 # 1GHz
sim-time-limit = 1000s
**.qrsa.hm.link_tomography = false
**.qrsa.hm.initial_purification = 0
**.qrsa.hm.purification_type = ""
*.alice.is_initiator = true
**.buffers = 2
**.app.number_of_bellpair = 10000
**.qrsa.hm.num_measure = 10000


[Config purification_validation_with_inf_coherence_for_10000_pairs_with_link_fidelity_78]
network = networks.cross_validation_purification
**.memory_x_error_rate = 0
**.memory_y_error_rate = 0
**.memory_z_error_rate = 0
**.channel_x_error_rate = 0.0020633434614865105
**.channel_z_error_rate = 0.0020633434614865105
**.channel_y_error_rate = 0.0020633434614865105
repeat = 30
seed-set = ${repetition}
**.photon_detection_per_second = 1000000000 # 1GHz
sim-time-limit = 1000s
**.qrsa.hm.link_tomography = false
**.qrsa.hm.initial_purification = 0
**.qrsa.hm.purification_type = ""
*.alice.is_initiator = true
**.buffers = 2
**.app.number_of_bellpair = 10000
**.qrsa.hm.num_measure = 10000


[Config purification_validation_with_inf_coherence_for_10000_pairs_with_link_fidelity_8]
network = networks.cross_validation_purification
**.memory_x_error_rate = 0
**.memory_y_error_rate = 0
**.memory_z_error_rate = 0
**.channel_x_error_rate = 0.001844064298347802
**.channel_z_error_rate = 0.001844064298347802
**.channel_y_error_rate = 0.001844064298347802
repeat = 30
seed-set = ${repetition}
**.photon_detection_per_second = 1000000000 # 1GHz
sim-time-limit = 1000s
**.qrsa.hm.link_tomography = false
**.qrsa.hm.initial_purification = 0
**.qrsa.hm.purification_type = ""
*.alice.is_initiator = true
**.buffers = 2
**.app.number_of_bellpair = 10000
**.qrsa.hm.num_measure = 10000


[Config purification_validation_with_inf_coherence_for_10000_pairs_with_link_fidelity_82]
network = networks.cross_validation_purification
**.memory_x_error_rate = 0
**.memory_y_error_rate = 0
**.memory_z_error_rate = 0
**.channel_x_error_rate = 0.0016324258314853067
**.channel_z_error_rate = 0.0016324258314853067
**.channel_y_error_rate = 0.0016324258314853067
repeat = 30
seed-set = ${repetition}
**.photon_detection_per_second = 1000000000 # 1GHz
sim-time-limit = 1000s
**.qrsa.hm.link_tomography = false
**.qrsa.hm.initial_purification = 0
**.qrsa.hm.purification_type = ""
*.alice.is_initiator = true
**.buffers = 2
**.app.number_of_bellpair = 10000
**.qrsa.hm.num_measure = 10000


[Config purification_validation_with_inf_coherence_for_10000_pairs_with_link_fidelity_84]
network = networks.cross_validation_purification
**.memory_x_error_rate = 0
**.memory_y_error_rate = 0
**.memory_z_error_rate = 0
**.channel_x_error_rate = 0.0014279073177021929
**.channel_z_error_rate = 0.0014279073177021929
**.channel_y_error_rate = 0.0014279073177021929
repeat = 30
seed-set = ${repetition}
**.photon_detection_per_second = 1000000000 # 1GHz
sim-time-limit = 1000s
**.qrsa.hm.link_tomography = false
**.qrsa.hm.initial_purification = 0
**.qrsa.hm.purification_type = ""
*.alice.is_initiator = true
**.buffers = 2
**.app.number_of_bellpair = 10000
**.qrsa.hm.num_measure = 10000


[Config purification_validation_with_inf_coherence_for_10000_pairs_with_link_fidelity_86]
network = networks.cross_validation_purification
**.memory_x_error_rate = 0
**.memory_y_error_rate = 0
**.memory_z_error_rate = 0
**.channel_x_error_rate = 0.00123003969565616
**.channel_z_error_rate = 0.00123003969565616
**.channel_y_error_rate = 0.00123003969565616
repeat = 30
seed-set = ${repetition}
**.photon_detection_per_second = 1000000000 # 1GHz
sim-time-limit = 1000s
**.qrsa.hm.link_tomography = false
**.qrsa.hm.initial_purification = 0
**.qrsa.hm.purification_type = ""
*.alice.is_initiator = true
**.buffers = 2
**.app.number_of_bellpair = 10000
**.qrsa.hm.num_measure = 10000


[Config purification_validation_with_inf_coherence_for_10000_pairs_with_link_fidelity_88]
network = networks.cross_validation_purification
**.memory_x_error_rate = 0
**.memory_y_error_rate = 0
**.memory_z_error_rate = 0
**.channel_x_error_rate = 0.0010383989501860922
**.channel_z_error_rate = 0.0010383989501860922
**.channel_y_error_rate = 0.0010383989501860922
repeat = 30
seed-set = ${repetition}
**.photon_detection_per_second = 1000000000 # 1GHz
sim-time-limit = 1000s
**.qrsa.hm.link_tomography = false
**.qrsa.hm.initial_purification = 0
**.qrsa.hm.purification_type = ""
*.alice.is_initiator = true
**.buffers = 2
**.app.number_of_bellpair = 10000
**.qrsa.hm.num_measure = 10000


[Config purification_validation_with_inf_coherence_for_10000_pairs_with_link_fidelity_9]
network = networks.cross_validation_purification
**.memory_x_error_rate = 0
**.memory_y_error_rate = 0
**.memory_z_error_rate = 0
**.channel_x_error_rate = 0.0008526005221938248
**.channel_z_error_rate = 0.0008526005221938248
**.channel_y_error_rate = 0.0008526005221938248
repeat = 30
seed-set = ${repetition}
**.photon_detection_per_second = 1000000000 # 1GHz
sim-time-limit = 1000s
**.qrsa.hm.link_tomography = false
**.qrsa.hm.initial_purification = 0
**.qrsa.hm.purification_type = ""
*.alice.is_initiator = true
**.buffers = 2
**.app.number_of_bellpair = 10000
**.qrsa.hm.num_measure = 10000


[Config purification_validation_with_inf_coherence_for_10000_pairs_with_link_fidelity_92]
network = networks.cross_validation_purification
**.memory_x_error_rate = 0
**.memory_y_error_rate = 0
**.memory_z_error_rate = 0
**.channel_x_error_rate = 0.0006722945370711387
**.channel_z_error_rate = 0.0006722945370711387
**.channel_y_error_rate = 0.0006722945370711387
repeat = 30
seed-set = ${repetition}
**.photon_detection_per_second = 1000000000 # 1GHz
sim-time-limit = 1000s
**.qrsa.hm.link_tomography = false
**.qrsa.hm.initial_purification = 0
**.qrsa.hm.purification_type = ""
*.alice.is_initiator = true
**.buffers = 2
**.app.number_of_bellpair = 10000
**.qrsa.hm.num_measure = 10000


[Config purification_validation_with_inf_coherence_for_10000_pairs_with_link_fidelity_94]
network = networks.cross_validation_purification
**.memory_x_error_rate = 0
**.memory_y_error_rate = 0
**.memory_z_error_rate = 0
**.channel_x_error_rate = 0.0004971617578121366
**.channel_z_error_rate = 0.0004971617578121366
**.channel_y_error_rate = 0.0004971617578121366
repeat = 30
seed-set = ${repetition}
**.photon_detection_per_second = 1000000000 # 1GHz
sim-time-limit = 1000s
**.qrsa.hm.link_tomography = false
**.qrsa.hm.initial_purification = 0
**.qrsa.hm.purification_type = ""
*.alice.is_initiator = true
**.buffers = 2
**.app.number_of_bellpair = 10000
**.qrsa.hm.num_measure = 10000


[Config purification_validation_with_inf_coherence_for_10000_pairs_with_link_fidelity_96]
network = networks.cross_validation_purification
**.memory_x_error_rate = 0
**.memory_y_error_rate = 0
**.memory_z_error_rate = 0
**.channel_x_error_rate = 0.0003269101034675259
**.channel_z_error_rate = 0.0003269101034675259
**.channel_y_error_rate = 0.0003269101034675259
repeat = 30
seed-set = ${repetition}
**.photon_detection_per_second = 1000000000 # 1GHz
sim-time-limit = 1000s
**.qrsa.hm.link_tomography = false
**.qrsa.hm.initial_purification = 0
**.qrsa.hm.purification_type = ""
*.alice.is_initiator = true
**.buffers = 2
**.app.number_of_bellpair = 10000
**.qrsa.hm.num_measure = 10000


[Config purification_validation_with_inf_coherence_for_10000_pairs_with_link_fidelity_98]
network = networks.cross_validation_purification
**.memory_x_error_rate = 0
**.memory_y_error_rate = 0
**.memory_z_error_rate = 0
**.channel_x_error_rate = 0.00016127164344652558
**.channel_z_error_rate = 0.00016127164344652558
**.channel_y_error_rate = 0.00016127164344652558
repeat = 30
seed-set = ${repetition}
**.photon_detection_per_second = 1000000000 # 1GHz
sim-time-limit = 1000s
**.qrsa.hm.link_tomography = false
**.qrsa.hm.initial_purification = 0
**.qrsa.hm.purification_type = ""
*.alice.is_initiator = true
**.buffers = 2
**.app.number_of_bellpair = 10000
**.qrsa.hm.num_measure = 10000


[Config purification_validation_with_inf_coherence_for_10000_pairs_with_link_fidelity_unit]
network = networks.cross_validation_purification
**.memory_x_error_rate = 0
**.memory_y_error_rate = 0
**.memory_z_error_rate = 0
**.channel_x_error_rate = 0
**.channel_z_error_rate = 0
**.channel_y_error_rate = 0
repeat = 30
seed-set = ${repetition}
**.photon_detection_per_second = 1000000000 # 1GHz
sim-time-limit = 1000s
**.qrsa.hm.link_tomography = false
**.qrsa.hm.initial_purification = 0
**.qrsa.hm.purification_type = ""
*.alice.is_initiator = true
**.buffers = 2
**.app.number_of_bellpair = 10000
**.qrsa.hm.num_measure = 10000


[Config purification_validation_with_33307_coherence_for_10000_pairs_with_link_fidelity_6]
network = networks.cross_validation_purification
**.memory_x_error_rate = 1.3888667466233071e-05
**.memory_y_error_rate = 1.3888667466233071e-05
**.memory_z_error_rate = 1.3888667466233071e-05
**.channel_x_error_rate = 0.004505924979457633
**.channel_z_error_rate = 0.004505924979457633
**.channel_y_error_rate = 0.004505924979457633
repeat = 30
seed-set = ${repetition}
**.photon_detection_per_second = 1000000000 # 1GHz
sim-time-limit = 1000s
**.qrsa.hm.link_tomography = false
**.qrsa.hm.initial_purification = 0
**.qrsa.hm.purification_type = ""
*.alice.is_initiator = true
**.buffers = 2
**.app.number_of_bellpair = 10000
**.qrsa.hm.num_measure = 10000


[Config purification_validation_with_33307_coherence_for_10000_pairs_with_link_fidelity_62]
network = networks.cross_validation_purification
**.memory_x_error_rate = 1.3888667466233071e-05
**.memory_y_error_rate = 1.3888667466233071e-05
**.memory_z_error_rate = 1.3888667466233071e-05
**.channel_x_error_rate = 0.004180278696730965
**.channel_z_error_rate = 0.004180278696730965
**.channel_y_error_rate = 0.004180278696730965
repeat = 30
seed-set = ${repetition}
**.photon_detection_per_second = 1000000000 # 1GHz
sim-time-limit = 1000s
**.qrsa.hm.link_tomography = false
**.qrsa.hm.initial_purification = 0
**.qrsa.hm.purification_type = ""
*.alice.is_initiator = true
**.buffers = 2
**.app.number_of_bellpair = 10000
**.qrsa.hm.num_measure = 10000


[Config purification_validation_with_33307_coherence_for_10000_pairs_with_link_fidelity_64]
network = networks.cross_validation_purification
**.memory_x_error_rate = 1.3888667466233071e-05
**.memory_y_error_rate = 1.3888667466233071e-05
**.memory_z_error_rate = 1.3888667466233071e-05
**.channel_x_error_rate = 0.0038713622518116602
**.channel_z_error_rate = 0.0038713622518116602
**.channel_y_error_rate = 0.0038713622518116602
repeat = 30
seed-set = ${repetition}
**.photon_detection_per_second = 1000000000 # 1GHz
sim-time-limit = 1000s
**.qrsa.hm.link_tomography = false
**.qrsa.hm.initial_purification = 0
**.qrsa.hm.purification_type = ""
*.alice.is_initiator = true
**.buffers = 2
**.app.number_of_bellpair = 10000
**.qrsa.hm.num_measure = 10000


[Config purification_validation_with_33307_coherence_for_10000_pairs_with_link_fidelity_66]
network = networks.cross_validation_purification
**.memory_x_error_rate = 1.3888667466233071e-05
**.memory_y_error_rate = 1.3888667466233071e-05
**.memory_z_error_rate = 1.3888667466233071e-05
**.channel_x_error_rate = 0.003577521432453068
**.channel_z_error_rate = 0.003577521432453068
**.channel_y_error_rate = 0.003577521432453068
repeat = 30
seed-set = ${repetition}
**.photon_detection_per_second = 1000000000 # 1GHz
sim-time-limit = 1000s
**.qrsa.hm.link_tomography = false
**.qrsa.hm.initial_purification = 0
**.qrsa.hm.purification_type = ""
*.alice.is_initiator = true
**.buffers = 2
**.app.number_of_bellpair = 10000
**.qrsa.hm.num_measure = 10000


[Config purification_validation_with_33307_coherence_for_10000_pairs_with_link_fidelity_68]
network = networks.cross_validation_purification
**.memory_x_error_rate = 1.3888667466233071e-05
**.memory_y_error_rate = 1.3888667466233071e-05
**.memory_z_error_rate = 1.3888667466233071e-05
**.channel_x_error_rate = 0.0032973367044178306
**.channel_z_error_rate = 0.0032973367044178306
**.channel_y_error_rate = 0.0032973367044178306
repeat = 30
seed-set = ${repetition}
**.photon_detection_per_second = 1000000000 # 1GHz
sim-time-limit = 1000s
**.qrsa.hm.link_tomography = false
**.qrsa.hm.initial_purification = 0
**.qrsa.hm.purification_type = ""
*.alice.is_initiator = true
**.buffers = 2
**.app.number_of_bellpair = 10000
**.qrsa.hm.num_measure = 10000


[Config purification_validation_with_33307_coherence_for_10000_pairs_with_link_fidelity_7]
network = networks.cross_validation_purification
**.memory_x_error_rate = 1.3888667466233071e-05
**.memory_y_error_rate = 1.3888667466233071e-05
**.memory_z_error_rate = 1.3888667466233071e-05
**.channel_x_error_rate = 0.0030295807540824168
**.channel_z_error_rate = 0.0030295807540824168
**.channel_y_error_rate = 0.0030295807540824168
repeat = 30
seed-set = ${repetition}
**.photon_detection_per_second = 1000000000 # 1GHz
sim-time-limit = 1000s
**.qrsa.hm.link_tomography = false
**.qrsa.hm.initial_purification = 0
**.qrsa.hm.purification_type = ""
*.alice.is_initiator = true
**.buffers = 2
**.app.number_of_bellpair = 10000
**.qrsa.hm.num_measure = 10000


[Config purification_validation_with_33307_coherence_for_10000_pairs_with_link_fidelity_72]
network = networks.cross_validation_purification
**.memory_x_error_rate = 1.3888667466233071e-05
**.memory_y_error_rate = 1.3888667466233071e-05
**.memory_z_error_rate = 1.3888667466233071e-05
**.channel_x_error_rate = 0.0027731852074794013
**.channel_z_error_rate = 0.0027731852074794013
**.channel_y_error_rate = 0.0027731852074794013
repeat = 30
seed-set = ${repetition}
**.photon_detection_per_second = 1000000000 # 1GHz
sim-time-limit = 1000s
**.qrsa.hm.link_tomography = false
**.qrsa.hm.initial_purification = 0
**.qrsa.hm.purification_type = ""
*.alice.is_initiator = true
**.buffers = 2
**.app.number_of_bellpair = 10000
**.qrsa.hm.num_measure = 10000


[Config purification_validation_with_33307_coherence_for_10000_pairs_with_link_fidelity_74]
network = networks.cross_validation_purification
**.memory_x_error_rate = 1.3888667466233071e-05
**.memory_y_error_rate = 1.3888667466233071e-05
**.memory_z_error_rate = 1.3888667466233071e-05
**.channel_x_error_rate = 0.0025272142753237858
**.channel_z_error_rate = 0.0025272142753237858
**.channel_y_error_rate = 0.0025272142753237858
repeat = 30
seed-set = ${repetition}
**.photon_detection_per_second = 1000000000 # 1GHz
sim-time-limit = 1000s
**.qrsa.hm.link_tomography = false
**.qrsa.hm.initial_purification = 0
**.qrsa.hm.purification_type = ""
*.alice.is_initiator = true
**.buffers = 2
**.app.number_of_bellpair = 10000
**.qrsa.hm.num_measure = 10000


[Config purification_validation_with_33307_coherence_for_10000_pairs_with_link_fidelity_76]
network = networks.cross_validation_purification
**.memory_x_error_rate = 1.3888667466233071e-05
**.memory_y_error_rate = 1.3888667466233071e-05
**.memory_z_error_rate = 1.3888667466233071e-05
**.channel_x_error_rate = 0.0022908436607394834
**.channel_z_error_rate = 0.0022908436607394834
**.channel_y_error_rate = 0.0022908436607394834
repeat = 30
seed-set = ${repetition}
**.photon_detection_per_second = 1000000000 # 1GHz
sim-time-limit = 1000s
**.qrsa.hm.link_tomography = false
**.qrsa.hm.initial_purification = 0
**.qrsa.hm.purification_type = ""
*.alice.is_initiator = true
**.buffers = 2
**.app.number_of_bellpair = 10000
**.qrsa.hm.num_measure = 10000


[Config purification_validation_with_33307_coherence_for_10000_pairs_with_link_fidelity_78]
network = networks.cross_validation_purification
**.memory_x_error_rate = 1.3888667466233071e-05
**.memory_y_error_rate = 1.3888667466233071e-05
**.memory_z_error_rate = 1.3888667466233071e-05
**.channel_x_error_rate = 0.0020633434614865105
**.channel_z_error_rate = 0.0020633434614865105
**.channel_y_error_rate = 0.0020633434614865105
repeat = 30
seed-set = ${repetition}
**.photon_detection_per_second = 1000000000 # 1GHz
sim-time-limit = 1000s
**.qrsa.hm.link_tomography = false
**.qrsa.hm.initial_purification = 0
**.qrsa.hm.purification_type = ""
*.alice.is_initiator = true
**.buffers = 2
**.app.number_of_bellpair = 10000
**.qrsa.hm.num_measure = 10000


[Config purification_validation_with_33307_coherence_for_10000_pairs_with_link_fidelity_8]
network = networks.cross_validation_purification
**.memory_x_error_rate = 1.3888667466233071e-05
**.memory_y_error_rate = 1.3888667466233071e-05
**.memory_z_error_rate = 1.3888667466233071e-05
**.channel_x_error_rate = 0.001844064298347802
**.channel_z_error_rate = 0.001844064298347802
**.channel_y_error_rate = 0.001844064298347802
repeat = 30
seed-set = ${repetition}
**.photon_detection_per_second = 1000000000 # 1GHz
sim-time-limit = 1000s
**.qrsa.hm.link_tomography = false
**.qrsa.hm.initial_purification = 0
**.qrsa.hm.purification_type = ""
*.alice.is_initiator = true
**.buffers = 2
**.app.number_of_bellpair = 10000
**.qrsa.hm.num_measure = 10000


[Config purification_validation_with_33307_coherence_for_10000_pairs_with_link_fidelity_82]
network = networks.cross_validation_purification
**.memory_x_error_rate = 1.3888667466233071e-05
**.memory_y_error_rate = 1.3888667466233071e-05
**.memory_z_error_rate = 1.3888667466233071e-05
**.channel_x_error_rate = 0.0016324258314853067
**.channel_z_error_rate = 0.0016324258314853067
**.channel_y_error_rate = 0.0016324258314853067
repeat = 30
seed-set = ${repetition}
**.photon_detection_per_second = 1000000000 # 1GHz
sim-time-limit = 1000s
**.qrsa.hm.link_tomography = false
**.qrsa.hm.initial_purification = 0
**.qrsa.hm.purification_type = ""
*.alice.is_initiator = true
**.buffers = 2
**.app.number_of_bellpair = 10000
**.qrsa.hm.num_measure = 10000


[Config purification_validation_with_33307_coherence_for_10000_pairs_with_link_fidelity_84]
network = networks.cross_validation_purification
**.memory_x_error_rate = 1.3888667466233071e-05
**.memory_y_error_rate = 1.3888667466233071e-05
**.memory_z_error_rate = 1.3888667466233071e-05
**.channel_x_error_rate = 0.0014279073177021929
**.channel_z_error_rate = 0.0014279073177021929
**.channel_y_error_rate = 0.0014279073177021929
repeat = 30
seed-set = ${repetition}
**.photon_detection_per_second = 1000000000 # 1GHz
sim-time-limit = 1000s
**.qrsa.hm.link_tomography = false
**.qrsa.hm.initial_purification = 0
**.qrsa.hm.purification_type = ""
*.alice.is_initiator = true
**.buffers = 2
**.app.number_of_bellpair = 10000
**.qrsa.hm.num_measure = 10000


[Config purification_validation_with_33307_coherence_for_10000_pairs_with_link_fidelity_86]
network = networks.cross_validation_purification
**.memory_x_error_rate = 1.3888667466233071e-05
**.memory_y_error_rate = 1.3888667466233071e-05
**.memory_z_error_rate = 1.3888667466233071e-05
**.channel_x_error_rate = 0.00123003969565616
**.channel_z_error_rate = 0.00123003969565616
**.channel_y_error_rate = 0.00123003969565616
repeat = 30
seed-set = ${repetition}
**.photon_detection_per_second = 1000000000 # 1GHz
sim-time-limit = 1000s
**.qrsa.hm.link_tomography = false
**.qrsa.hm.initial_purification = 0
**.qrsa.hm.purification_type = ""
*.alice.is_initiator = true
**.buffers = 2
**.app.number_of_bellpair = 10000
**.qrsa.hm.num_measure = 10000


[Config purification_validation_with_33307_coherence_for_10000_pairs_with_link_fidelity_88]
network = networks.cross_validation_purification
**.memory_x_error_rate = 1.3888667466233071e-05
**.memory_y_error_rate = 1.3888667466233071e-05
**.memory_z_error_rate = 1.3888667466233071e-05
**.channel_x_error_rate = 0.0010383989501860922
**.channel_z_error_rate = 0.0010383989501860922
**.channel_y_error_rate = 0.0010383989501860922
repeat = 30
seed-set = ${repetition}
**.photon_detection_per_second = 1000000000 # 1GHz
sim-time-limit = 1000s
**.qrsa.hm.link_tomography = false
**.qrsa.hm.initial_purification = 0
**.qrsa.hm.purification_type = ""
*.alice.is_initiator = true
**.buffers = 2
**.app.number_of_bellpair = 10000
**.qrsa.hm.num_measure = 10000


[Config purification_validation_with_33307_coherence_for_10000_pairs_with_link_fidelity_9]
network = networks.cross_validation_purification
**.memory_x_error_rate = 1.3888667466233071e-05
**.memory_y_error_rate = 1.3888667466233071e-05
**.memory_z_error_rate = 1.3888667466233071e-05
**.channel_x_error_rate = 0.0008526005221938248
**.channel_z_error_rate = 0.0008526005221938248
**.channel_y_error_rate = 0.0008526005221938248
repeat = 30
seed-set = ${repetition}
**.photon_detection_per_second = 1000000000 # 1GHz
sim-time-limit = 1000s
**.qrsa.hm.link_tomography = false
**.qrsa.hm.initial_purification = 0
**.qrsa.hm.purification_type = ""
*.alice.is_initiator = true
**.buffers = 2
**.app.number_of_bellpair = 10000
**.qrsa.hm.num_measure = 10000


[Config purification_validation_with_33307_coherence_for_10000_pairs_with_link_fidelity_92]
network = networks.cross_validation_purification
**.memory_x_error_rate = 1.3888667466233071e-05
**.memory_y_error_rate = 1.3888667466233071e-05
**.memory_z_error_rate = 1.3888667466233071e-05
**.channel_x_error_rate = 0.0006722945370711387
**.channel_z_error_rate = 0.0006722945370711387
**.channel_y_error_rate = 0.0006722945370711387
repeat = 30
seed-set = ${repetition}
**.photon_detection_per_second = 1000000000 # 1GHz
sim-time-limit = 1000s
**.qrsa.hm.link_tomography = false
**.qrsa.hm.initial_purification = 0
**.qrsa.hm.purification_type = ""
*.alice.is_initiator = true
**.buffers = 2
**.app.number_of_bellpair = 10000
**.qrsa.hm.num_measure = 10000


[Config purification_validation_with_33307_coherence_for_10000_pairs_with_link_fidelity_94]
network = networks.cross_validation_purification
**.memory_x_error_rate = 1.3888667466233071e-05
**.memory_y_error_rate = 1.3888667466233071e-05
**.memory_z_error_rate = 1.3888667466233071e-05
**.channel_x_error_rate = 0.0004971617578121366
**.channel_z_error_rate = 0.0004971617578121366
**.channel_y_error_rate = 0.0004971617578121366
repeat = 30
seed-set = ${repetition}
**.photon_detection_per_second = 1000000000 # 1GHz
sim-time-limit = 1000s
**.qrsa.hm.link_tomography = false
**.qrsa.hm.initial_purification = 0
**.qrsa.hm.purification_type = ""
*.alice.is_initiator = true
**.buffers = 2
**.app.number_of_bellpair = 10000